data_cyc_sc_alpha_twin_twin1_hklf4
_audit_creation_date               2020-09-21
_audit_creation_method
;
Olex2 1.3-alpha
(compiled 2020.09.11 svn.r3730fd0d for OlexSys, GUI svn.r6159)
;
_shelx_SHELXL_version_number       '2018/3'
_audit_contact_author_address      ?
_audit_contact_author_email        ?
_audit_contact_author_name         ''
_audit_contact_author_phone        ?
_publ_contact_author_id_orcid      ?
_publ_section_references
;
D. Kratzert, I. Krossing, (2018), J. Appl. Cryst. 51, 928-934. 

Dolomanov, O.V., Bourhis, L.J., Gildea, R.J, Howard, J.A.K. & Puschmann, H.
 (2009), J. Appl. Cryst. 42, 339-341.

Kratzert, D., Holstein, J.J. & Krossing, I. (2015). J. Appl. Cryst. 48, 933-938.

Sheldrick, G.M. (2015). Acta Cryst. A71, 3-8.

Sheldrick, G.M. (2015). Acta Cryst. C71, 3-8.
;
_chemical_name_common              ?
_chemical_name_systematic          ?
_chemical_formula_moiety          
 'C36 H26 Cl6 N12 Zn3, 0.333(C6 H8), 0.25(C6 H12)'
_chemical_formula_sum              'C40.50 H31.67 Cl6 N11 Zn3'
_chemical_formula_weight           1081.24
_chemical_melting_point            ?
_chemical_oxdiff_formula           'Zn3 Cl6 C50 N15'
loop_
  _atom_type_symbol
  _atom_type_description
  _atom_type_scat_dispersion_real
  _atom_type_scat_dispersion_imag
  _atom_type_scat_source
 'C' 'C' 0.0181 0.0091 'International Tables Vol C Tables 4.2.6.8 and 6.1.1.4'
 'H' 'H' 0.0000 0.0000 'International Tables Vol C Tables 4.2.6.8 and 6.1.1.4'
 'Cl' 'Cl' 0.3639 0.7018 'International Tables Vol C Tables 4.2.6.8 and 6.1.1.4'
 'N' 'N' 0.0311 0.0180 'International Tables Vol C Tables 4.2.6.8 and 6.1.1.4'
 'Zn' 'Zn' -1.5491 0.6778
 'International Tables Vol C Tables 4.2.6.8 and 6.1.1.4'

_shelx_space_group_comment
;
The symmetry employed for this shelxl refinement is uniquely defined
by the following loop, which should always be used as a source of
symmetry information in preference to the above space-group names.
They are only intended as comments.
;
_space_group_crystal_system        'monoclinic'
_space_group_IT_number             15
_space_group_name_H-M_alt          'C 1 2/c 1'
_space_group_name_Hall             '-C 2yc'
loop_
  _space_group_symop_operation_xyz
 'x, y, z'
 '-x, y, -z+1/2'
 'x+1/2, y+1/2, z'
 '-x+1/2, y+1/2, -z+1/2'
 '-x, -y, -z'
 'x, -y, z-1/2'
 '-x+1/2, -y+1/2, -z'
 'x+1/2, -y+1/2, z-1/2'

_cell_length_a                     32.3493(11)
_cell_length_b                     14.4650(8)
_cell_length_c                     30.3607(12)
_cell_angle_alpha                  90
_cell_angle_beta                   99.999(4)
_cell_angle_gamma                  90
_cell_volume                       13991.0(11)
_cell_formula_units_Z              8
_cell_measurement_reflns_used      6445
_cell_measurement_temperature      100.01(10)
_cell_measurement_theta_max        71.9090
_cell_measurement_theta_min        3.7320
_shelx_estimated_absorpt_T_max     ?
_shelx_estimated_absorpt_T_min     ?
_exptl_absorpt_coefficient_mu      3.538
_exptl_absorpt_correction_T_max    0.493
_exptl_absorpt_correction_T_min    0.160
_exptl_absorpt_correction_type     gaussian
_exptl_absorpt_process_details
;
CrysAlisPro 1.171.41.47a (Rigaku Oxford Diffraction, 2019)
Numerical absorption correction based on gaussian integration over
			a multifaceted crystal model
Empirical absorption correction using spherical harmonics,
 implemented in SCALE3 ABSPACK scaling algorithm.
;
_exptl_absorpt_special_details     ?
_exptl_crystal_colour              'clear colourless'
_exptl_crystal_density_diffrn      1.027
_exptl_crystal_density_meas        ?
_exptl_crystal_density_method      ?
_exptl_crystal_description         prism
_exptl_crystal_F_000               4349
loop_
  _exptl_crystal_face_index_h
  _exptl_crystal_face_index_k
  _exptl_crystal_face_index_l
  _exptl_crystal_face_perp_dist
 3 -1 -2 0.1085
 -3 1 0 0.0975
 0 2 0 0.0963
 1 1 -1 0.0952
 2 0 0 0.0723
 0 -2 0 0.1272
 -4 -2 2 0.0995
 4 2 -2 0.0882
 -4 0 -1 0.0736
 -1 -1 2 0.0962
 5 1 -2 0.0747
 -2 0 0 0.0664
 4 0 -1 0.0728
 -2 0 2 0.0311
 -2 -2 -1 0.1290
 2 0 -2 0.0622
 0 0 -1 0.0961
 4 0 1 0.0699
 1 1 -2 0.1035
 -5 -1 2 0.0768
 0 0 1 0.0521
 -3 1 2 0.0597
 -1 -1 -2 0.1216
 2 -2 -1 0.1173
 -1 -1 1 0.1118

_exptl_crystal_size_max            0.224
_exptl_crystal_size_mid            0.171
_exptl_crystal_size_min            0.093
loop_
  _exptl_oxdiff_crystal_face_indexfrac_h
  _exptl_oxdiff_crystal_face_indexfrac_k
  _exptl_oxdiff_crystal_face_indexfrac_l
  _exptl_oxdiff_crystal_face_x
  _exptl_oxdiff_crystal_face_y
  _exptl_oxdiff_crystal_face_z
 2.9982 -1.0054 -1.9915 -0.0467 -0.1673 0.0881
 -2.9908 1.0040 -0.0132 0.0432 0.0864 -0.1521
 0.0165 2.0021 -0.0172 0.1970 0.0450 -0.0680
 1.0116 0.9994 -1.0094 0.1152 -0.0392 -0.0266
 1.9994 -0.0020 0.0031 0.0369 -0.0426 0.0787
 -0.0165 -2.0021 0.0172 -0.1970 -0.0450 0.0680
 -4.0225 -1.9968 2.0158 -0.2672 0.1210 -0.0254
 4.0225 1.9968 -2.0158 0.2672 -0.1210 0.0254
 -3.9950 0.0033 -1.0085 -0.0754 0.0447 -0.1894
 -1.0153 -0.9987 2.0118 -0.1134 0.0797 0.0586
 5.0140 0.9947 -2.0056 0.1871 -0.1648 0.0988
 -1.9994 0.0020 -0.0031 -0.0369 0.0426 -0.0787
 4.0024 -0.0046 -0.9962 0.0720 -0.1256 0.1254
 -2.0067 0.0033 2.0016 -0.0334 0.1235 -0.0147
 -2.0121 -2.0008 -0.9882 -0.2356 -0.0429 -0.0427
 2.0067 -0.0033 -2.0016 0.0334 -0.1235 0.0147
 0.0037 -0.0007 -1.0024 -0.0017 -0.0404 -0.0320
 3.9950 -0.0033 1.0085 0.0754 -0.0447 0.1894
 1.0153 0.9987 -2.0118 0.1134 -0.0797 -0.0586
 -5.0140 -0.9947 2.0056 -0.1871 0.1648 -0.0988
 -0.0037 0.0007 1.0024 0.0017 0.0404 0.0320
 -2.9982 1.0054 1.9915 0.0467 0.1673 -0.0881
 -1.0006 -1.0019 -1.9982 -0.1205 -0.0822 -0.0693
 1.9875 -2.0055 -0.9823 -0.1620 -0.1281 0.1148
 -1.0116 -0.9994 1.0094 -0.1152 0.0392 0.0266

_exptl_transmission_factor_max     ?
_exptl_transmission_factor_min     ?
_diffrn_reflns_av_R_equivalents    ?
_diffrn_reflns_av_unetI/netI       0.0373
_diffrn_reflns_Laue_measured_fraction_full  0.849
_diffrn_reflns_Laue_measured_fraction_max  0.817
_diffrn_reflns_limit_h_max         40
_diffrn_reflns_limit_h_min         -40
_diffrn_reflns_limit_k_max         16
_diffrn_reflns_limit_k_min         -16
_diffrn_reflns_limit_l_max         37
_diffrn_reflns_limit_l_min         -37
_diffrn_reflns_number              18980
_diffrn_reflns_point_group_measured_fraction_full  0.849
_diffrn_reflns_point_group_measured_fraction_max  0.817
_diffrn_reflns_theta_full          67.684
_diffrn_reflns_theta_max           73.902
_diffrn_reflns_theta_min           2.774
_diffrn_ambient_environment        N~2~
_diffrn_ambient_temperature        100.01(10)
_diffrn_detector                   'CCD plate'
_diffrn_detector_area_resol_mean   4.1818
_diffrn_detector_type              TitanS2
_diffrn_measured_fraction_theta_full  0.849
_diffrn_measured_fraction_theta_max  0.817
_diffrn_measurement_details
;
List of Runs (angles in degrees, time in seconds):

  # Type    Start    End  Width  t~exp~   \w     \q     \k     \f   Frames
--------------------------------------------------------------------------
  1  \w     -5.00  34.00   1.00   15.00    --  -43.14  19.00 120.00   39
  2  \w     -5.00  34.00   1.00   15.00    --  -43.14  19.00 -90.00   39
  3  \w    -44.00  27.00   1.00   15.00    --  -43.14  57.00 -30.00   71
  4  \w     -5.00  34.00   1.00   15.00    --  -43.14  19.00  30.00   39
  5  \w     -5.00  34.00   1.00   15.00    --  -43.14  19.00  60.00   39
  6  \w     10.00  42.00   1.00   15.00    --   43.14  81.00 100.18   32
  7  \w     10.00  42.00   1.00   15.00    --   43.14  81.00   9.73   32
  8  \w     31.00 112.00   1.00   60.00    --  104.50-125.00  30.00   81
  9  \w     30.00 127.00   1.00   60.00    --  104.50 -77.00 -60.00   97
 10  \w     97.00 178.00   1.00   60.00    --  104.50 125.00-180.00   81
 11  \w     77.00 175.00   1.00   60.00    --  104.50  63.00  99.53   98
 12  \w     79.00  89.00   1.00   60.00    --  104.50  57.00  72.66   10
;
_diffrn_measurement_device         'four-circle diffractometer'
_diffrn_measurement_device_type    'GV1000, TitanS2'
_diffrn_measurement_method         '\w scans'
_diffrn_orient_matrix_type        
 'CrysAlisPro convention (1999,Acta A55,543-557)'
_diffrn_orient_matrix_UB_11        0.0185261000
_diffrn_orient_matrix_UB_12        0.0982631000
_diffrn_orient_matrix_UB_13        0.0017412000
_diffrn_orient_matrix_UB_21        -0.0213324000
_diffrn_orient_matrix_UB_22        0.0230136000
_diffrn_orient_matrix_UB_23        0.0402573000
_diffrn_orient_matrix_UB_31        0.0392789000
_diffrn_orient_matrix_UB_32        -0.0340180000
_diffrn_orient_matrix_UB_33        0.0320672000
_diffrn_radiation_monochromator    mirror
_diffrn_radiation_probe            x-ray
_diffrn_radiation_type             'Cu K\a'
_diffrn_radiation_wavelength       1.54184
_diffrn_source                     'gradient vaccum rotating-anode X-ray tube'
_diffrn_source_type                'GV1000 (Cu) X-ray Source'
_reflns_Friedel_coverage           0.000
_reflns_Friedel_fraction_full      .
_reflns_Friedel_fraction_max       .
_reflns_number_gt                  12700
_reflns_number_total               18980
_reflns_special_details
;
 _reflns_Friedel_fraction is defined as the number of unique
 Friedel pairs measured divided by the number that would be
 possible theoretically, ignoring centric projections and
 systematic absences. Completness statistics refer to single and
 composite reflections containing twin component 1 only.
;
_reflns_threshold_expression       'I > 2\s(I)'
_computing_cell_refinement         'CrysAlisPro 1.171.41.47a (Rigaku OD, 2019)'
_computing_data_collection         'CrysAlisPro 1.171.41.47a (Rigaku OD, 2019)'
_computing_data_reduction          'CrysAlisPro 1.171.41.47a (Rigaku OD, 2019)'
_computing_molecular_graphics      'Olex2 1.3-alpha (Dolomanov et al., 2009)'
_computing_publication_material    'Olex2 1.3-alpha (Dolomanov et al., 2009)'
_computing_structure_refinement    'SHELXL 2018/3 (Sheldrick, 2015)'
_computing_structure_solution      'SHELXT  (Sheldrick, 2015)'
_refine_diff_density_max           1.941
_refine_diff_density_min           -1.762
_refine_diff_density_rms           0.243
_refine_ls_extinction_coef         .
_refine_ls_extinction_method       none
_refine_ls_goodness_of_fit_ref     1.737
_refine_ls_hydrogen_treatment      constr
_refine_ls_matrix_type             full
_refine_ls_number_parameters       243
_refine_ls_number_reflns           18980
_refine_ls_number_restraints       134
_refine_ls_R_factor_all            0.1717
_refine_ls_R_factor_gt             0.1455
_refine_ls_restrained_S_all        1.733
_refine_ls_shift/su_max            0.003
_refine_ls_shift/su_mean           0.000
_refine_ls_structure_factor_coef   Fsqd
_refine_ls_weighting_details      
 'w=1/[\s^2^(Fo^2^)+(0.2000P)^2^] where P=(Fo^2^+2Fc^2^)/3'
_refine_ls_weighting_scheme        calc
_refine_ls_wR_factor_gt            0.4285
_refine_ls_wR_factor_ref           0.4457
_refine_special_details
;
 Refined as a 2-component twin.
;
_olex2_refinement_description
;
1. Twinned data refinement
 Scales: 0.547(3)
 0.453(3)
2. Fixed Uiso
 At 1.2 times of:
  All C(H) groups, All C(H,H) groups, All N(H) groups
3. Restrained distances
 C1-C5 = C1-C9 = C5-C6 = C6-C7 = C7-C8 = C8-C9
 1.54 with sigma of 0.02
 C1-C6 = C1-C8 = C5-C7 = C6-C8 = C7-C9
 2.54 with sigma of 0.04
 C1-C8 \\sim C6-C8 \\sim C5-C9 \\sim C5-C7 \\sim C7-C9 \\sim C1-C6
 with sigma of 0.04
 C1-C5 \\sim C5-C6 \\sim C6-C7 \\sim C7-C8 \\sim C8-C9 \\sim C9-C1
 with sigma of 0.02
4. Uiso/Uaniso restraints and constraints
N00F \\sim N00J \\sim N00K: within 2A with sigma of 0.01 and sigma for terminal
atoms of 0.01 within 2A
C1 \\sim C5 \\sim C6 \\sim C7 \\sim C8 \\sim C9: within 2A with sigma of 0.04
and sigma for terminal atoms of 0.08 within 2A
N00K \\sim N00J \\sim N00F: within 2A with sigma of 0.04 and sigma for terminal
atoms of 0.08 within 2A
Uanis(C01L) = Uanis(C014) = Uanis(C01H) = Uanis(C01F) = Uanis(N01C) =
Uanis(C01M)
Uanis(C010) = Uanis(C018) = Uanis(C01G) = Uanis(C015) = Uanis(C00B)
Uanis(C01I) = Uanis(C01K) = Uanis(C019) = Uanis(C01D)
Uanis(Cl1) = Uanis(Cl00)
Uanis(Zn03) = Uanis(Zn)
Uanis(Cl1A) = Uanis(Cl1)
Uanis(Cl00) = Uanis(Cl)
Uanis(C2) = Uanis(C18) = Uanis(C19) = Uanis(C4) = Uanis(C3) = Uanis(C11)
Uanis(C7) = Uanis(C1) = Uanis(C5) = Uanis(C9) = Uanis(C6) = Uanis(C8)
5. Rigid body (RIGU) restrains
 Cl1A, Zn, Cl
 with sigma for 1-2 distances of 0.001 and sigma for 1-3 distances of 0.001
 Cl1, Zn03, Cl00
 with sigma for 1-2 distances of 0.001 and sigma for 1-3 distances of 0.001
 C1, C5, C6, C7, C8, C9
 with sigma for 1-2 distances of 0.004 and sigma for 1-3 distances of 0.004
 Cl04, Zn02, Cl06
 with sigma for 1-2 distances of 0.01 and sigma for 1-3 distances of 0.01
6. Others
 Sof(Zn)=Sof(Cl)=Sof(Cl1A)=1-FVAR(1)
 Sof(Zn03)=Sof(Cl00)=Sof(Cl1)=FVAR(1)
 Fixed Sof: C2(0.33333) H2(0.33333) C3(0.33333) H3A(0.33333) H3B(0.33333)
 C4(0.33333) H4(0.33333) C11(0.33333) H11A(0.33333) H11B(0.33333) C18(0.33333)
 H18(0.33333) C19(0.33333) H19(0.33333) C1(0.25) H1A(0.25) H1B(0.25) C5(0.25)
 H5A(0.25) H5B(0.25) C6(0.25) H6A(0.25) H6B(0.25) C7(0.25) H7A(0.25) H7B(0.25)
 C8(0.25) H8A(0.25) H8B(0.25) C9(0.25) H9A(0.25) H9B(0.25)
 Fixed U11: Zn01(0.069514) Zn03(0.08146) Cl05(0.091512) Cl07(0.085029)
 Cl00(0.11342) Cl1(0.11342) N00A(0.04234) C00B(0.066434) N00D(0.053144)
 N00E(0.044275) N00F(0.060637) N00G(0.053721) N00H(0.057028) N00I(0.056995)
 N00J(0.058333) N00K(0.05628) C00L(0.050092) C00M(0.044786) C00N(0.03985)
 C00O(0.046077) C00P(0.047759) C00Q(0.039915) C00R(0.059034) C00S(0.045113)
 C00T(0.051657) C00U(0.05317) N00V(0.090185) C00W(0.044958) N00X(0.095819)
 C00Y(0.050377) C00Z(0.08065) C010(0.066434) C011(0.053468) C012(0.039376)
 C013(0.054246) C014(0.092441) C015(0.066434) C016(0.066456) C017(0.053833)
 C018(0.066434) C019(0.095522) C01A(0.068992) C01B(0.088155) N01C(0.092441)
 C01D(0.095522) C01E(0.070897) C01F(0.092441) C01G(0.066434) C01H(0.092441)
 C01I(0.095522) C01J(0.112666) C01K(0.095522) C01L(0.092441) C01M(0.092441)
 Zn(0.08146) Cl(0.11342) Cl1A(0.11342) C2(0.076807) C3(0.076807) C4(0.076807)
 C11(0.076807) C18(0.076807) C19(0.076807)
 Fixed U12: Zn01(0.007127) Zn03(-0.000105) Cl05(-0.011765) Cl07(0.027064)
 Cl00(-0.002584) Cl1(-0.002584) N00A(-0.000182) C00B(0.0002) N00D(-0.001644)
 N00E(0.004207) N00F(0.003101) N00G(0.007148) N00H(-0.015152) N00I(-0.01098)
 N00J(-0.00766) N00K(-0.005247) C00L(0.002429) C00M(0.003199) C00N(0.001618)
 C00O(-0.003801) C00P(-0.00403) C00Q(-0.006018) C00R(0.003322) C00S(0.001305)
 C00T(0.000086) C00U(-0.006986) N00V(-0.006267) C00W(-0.003822) N00X(0.02006)
 C00Y(-0.004391) C00Z(-0.007127) C010(0.0002) C011(-0.005544) C012(-0.003376)
 C013(-0.004896) C014(0.007402) C015(0.0002) C016(-0.009578) C017(-0.001446)
 C018(0.0002) C019(0.008611) C01A(-0.010343) C01B(-0.030476) N01C(0.007402)
 C01D(0.008611) C01E(-0.026839) C01F(0.007402) C01G(0.0002) C01H(0.007402)
 C01I(0.008611) C01J(-0.028561) C01K(0.008611) C01L(0.007402) C01M(0.007402)
 Zn(-0.000105) Cl(-0.002584) Cl1A(-0.002584) C2(0.014512) C3(0.014512)
 C4(0.014512) C11(0.014512) C18(0.014512) C19(0.014512)
 Fixed U13: Zn01(-0.036047) Zn03(0.014884) Cl05(-0.041793) Cl07(-0.025123)
 Cl00(0.031923) Cl1(0.031923) N00A(-0.024875) C00B(-0.033964) N00D(-0.028934)
 N00E(-0.007699) N00F(-0.022211) N00G(-0.015043) N00H(-0.031518) N00I(-
 0.035137) N00J(-0.020436) N00K(-0.028142) C00L(-0.029498) C00M(-0.027008)
 C00N(-0.021901) C00O(-0.018555) C00P(-0.023385) C00Q(-0.022404) C00R(-0.02728)
 C00S(-0.006518) C00T(-0.021637) C00U(-0.00747) N00V(-0.035105) C00W(-0.0155)
 N00X(0.042302) C00Y(-0.019038) C00Z(-0.045499) C010(-0.033964) C011(-0.024071)
 C012(-0.009639) C013(-0.030962) C014(0.031798) C015(-0.033964) C016(-0.032544)
 C017(-0.018907) C018(-0.033964) C019(-0.003126) C01A(-0.03824) C01B(-0.021778)
 N01C(0.031798) C01D(-0.003126) C01E(-0.009191) C01F(0.031798) C01G(-0.033964)
 C01H(0.031798) C01I(-0.003126) C01J(0.041467) C01K(-0.003126) C01L(0.031798)
 C01M(0.031798) Zn(0.014884) Cl(0.031923) Cl1A(0.031923) C2(-0.005698) C3(-
 0.005698) C4(-0.005698) C11(-0.005698) C18(-0.005698) C19(-0.005698)
 Fixed U22: Zn01(0.02631) Zn03(0.01786) Cl05(0.02679) Cl07(0.07035)
 Cl00(0.02919) Cl1(0.02919) N00A(0.0202) C00B(0.01716) N00D(0.0237)
 N00E(0.03677) N00F(0.00724) N00G(0.03358) N00H(0.03559) N00I(0.03182)
 N00J(0.02162) N00K(0.00321) C00L(0.03417) C00M(0.01864) C00N(0.02718)
 C00O(0.02682) C00P(0.0247) C00Q(0.02347) C00R(0.00835) C00S(0.01406)
 C00T(0.02273) C00U(0.02594) N00V(0.05677) C00W(0.03226) N00X(0.03517)
 C00Y(0.03241) C00Z(0.02309) C010(0.01716) C011(0.01232) C012(0.02794)
 C013(0.02754) C014(0.03733) C015(0.01716) C016(0.02724) C017(0.02044)
 C018(0.01716) C019(0.01789) C01A(0.01245) C01B(0.05542) N01C(0.03733)
 C01D(0.01789) C01E(0.0575) C01F(0.03733) C01G(0.01716) C01H(0.03733)
 C01I(0.01789) C01J(0.01759) C01K(0.01789) C01L(0.03733) C01M(0.03733)
 Zn(0.01786) Cl(0.02919) Cl1A(0.02919) C2(0.08804) C3(0.08804) C4(0.08804)
 C11(0.08804) C18(0.08804) C19(0.08804)
 Fixed U23: Zn01(0.00001) Zn03(0.00031) Cl05(0.00689) Cl07(-0.00307)
 Cl00(0.00504) Cl1(0.00504) N00A(0.00201) C00B(-0.00027) N00D(0.00541)
 N00E(0.00027) N00F(0.00021) N00G(-0.00161) N00H(0.01124) N00I(0.00555) N00J(-
 0.00378) N00K(0.00171) C00L(0.01197) C00M(0.00299) C00N(0.00424) C00O(0.0071)
 C00P(0.00558) C00Q(0.00856) C00R(-0.00784) C00S(-0.00429) C00T(-0.00331) C00U(-
 0.00144) N00V(0.00289) C00W(-0.00303) N00X(0.03061) C00Y(0.00872) C00Z(-
 0.00617) C010(-0.00027) C011(-0.00052) C012(0.00348) C013(-0.00074)
 C014(0.00294) C015(-0.00027) C016(0.00255) C017(0.00129) C018(-0.00027) C019(-
 0.0034) C01A(0.0085) C01B(-0.01231) N01C(0.00294) C01D(-0.0034) C01E(-0.01589)
 C01F(0.00294) C01G(-0.00027) C01H(0.00294) C01I(-0.0034) C01J(-0.04684) C01K(-
 0.0034) C01L(0.00294) C01M(0.00294) Zn(0.00031) Cl(0.00504) Cl1A(0.00504) C2(-
 0.02086) C3(-0.02086) C4(-0.02086) C11(-0.02086) C18(-0.02086) C19(-0.02086)
 Fixed U33: Zn01(0.05039) Zn03(0.06486) Cl05(0.0869) Cl07(0.05426)
 Cl00(0.09792) Cl1(0.09792) N00A(0.04721) C00B(0.05188) N00D(0.04587)
 N00E(0.0462) N00F(0.05462) N00G(0.04852) N00H(0.05903) N00I(0.05139)
 N00J(0.04559) N00K(0.04846) C00L(0.044) C00M(0.05706) C00N(0.03685)
 C00O(0.03774) C00P(0.04141) C00Q(0.04909) C00R(0.04795) C00S(0.04895)
 C00T(0.04048) C00U(0.04237) N00V(0.06365) C00W(0.05468) N00X(0.10292)
 C00Y(0.0505) C00Z(0.06075) C010(0.05188) C011(0.04962) C012(0.04868)
 C013(0.05334) C014(0.08826) C015(0.05188) C016(0.05696) C017(0.05759)
 C018(0.05188) C019(0.07354) C01A(0.06784) C01B(0.05873) N01C(0.08826)
 C01D(0.07354) C01E(0.05651) C01F(0.08826) C01G(0.05188) C01H(0.08826)
 C01I(0.07354) C01J(0.13035) C01K(0.07354) C01L(0.08826) C01M(0.08826)
 Zn(0.06486) Cl(0.09792) Cl1A(0.09792) C2(0.06889) C3(0.06889) C4(0.06889)
 C11(0.06889) C18(0.06889) C19(0.06889)
 Fixed Uiso: H00W(0.05) H00Y(0.05) H00Z(0.05) H010(0.05) H012(0.05) H013(0.05)
 H015(0.05) H016(0.05) H017(0.05) H01A(0.05) H01B(0.05) H01D(0.05) H01E(0.05)
 H01F(0.05) H01G(0.05) H01H(0.05) H01I(0.05) H01J(0.05) H01K(0.05) H01L(0.05)
 H01M(0.05)
7.a Secondary CH2 refined with riding coordinates:
 C3(H3A,H3B), C11(H11A,H11B), C1(H1A,H1B), C5(H5A,H5B), C6(H6A,H6B), C7(H7A,
 H7B), C8(H8A,H8B), C9(H9A,H9B)
7.b Aromatic/amide H refined with riding coordinates:
 N00F(H00F), C00L(H00L), C00O(H00O), N00V(H00V), C00W(H00W), C00Y(H00Y),
 C00Z(H00Z), C010(H010), C012(H012), C013(H013), C015(H015), C016(H016),
 C017(H017), C01A(H01A), C01B(H01B), N01C(H01C), C01D(H01D), C01E(H01E),
 C01F(H01F), C01G(H01G), C01H(H01H), C01I(H01I), C01J(H01J), C01K(H01K),
 C01L(H01L), C01M(H01M), C2(H2), C4(H4), C18(H18), C19(H19)
;
_atom_sites_solution_hydrogens     geom
_atom_sites_solution_primary       dual
_atom_sites_solution_secondary     ?
loop_
  _atom_site_label
  _atom_site_type_symbol
  _atom_site_fract_x
  _atom_site_fract_y
  _atom_site_fract_z
  _atom_site_U_iso_or_equiv
  _atom_site_adp_type
  _atom_site_occupancy
  _atom_site_site_symmetry_order
  _atom_site_calc_flag
  _atom_site_refinement_flags_posn
  _atom_site_refinement_flags_adp
  _atom_site_refinement_flags_occupancy
  _atom_site_disorder_assembly
  _atom_site_disorder_group
 Zn01 Zn 0.41891(5) 0.35086(11) 0.40510(5) 0.046 Uani 1 1 d . . . . .
 Zn02 Zn 0.63064(4) 1.12362(12) 0.54071(5) 0.0521(5) Uani 1 1 d . . . . .
 Zn03 Zn 0.32407(11) 0.8547(2) 0.73151(11) 0.055 Uani 0.593(3) 1 d . . P A 1
 Cl04 Cl 0.61508(10) 1.2532(2) 0.57325(12) 0.0670(10) Uani 1 1 d . . . . .
 Cl05 Cl 0.38309(11) 0.2459(2) 0.43550(12) 0.065 Uani 1 1 d . . . . .
 Cl06 Cl 0.65094(10) 1.1058(3) 0.47631(11) 0.0725(11) Uani 1 1 d . . . . .
 Cl07 Cl 0.47221(11) 0.3282(3) 0.36979(10) 0.068 Uani 1 1 d . . . . .
 Cl00 Cl 0.2683(3) 0.7705(5) 0.7102(2) 0.080 Uani 0.593(3) 1 d . . P A 1
 Cl1 Cl 0.3622(3) 0.8454(5) 0.7991(2) 0.080 Uani 0.593(3) 1 d . . P A 1
 N00A N 0.4837(2) 0.7593(6) 0.5225(3) 0.035 Uani 1 1 d . . . . .
 C00B C 0.8762(3) 1.0709(8) 0.8615(4) 0.042 Uani 1 1 d . . . . .
 N00D N 0.4385(3) 0.4521(7) 0.4513(3) 0.038 Uani 1 1 d . . . . .
 N00E N 0.4288(3) 0.7072(7) 0.5594(3) 0.042 Uani 1 1 d . . . . .
 N00F N 0.8139(3) 0.8324(6) 0.7509(3) 0.039 Uani 1 1 d . . . . .
 H00F H 0.833182 0.805343 0.770708 0.047 Uiso 1 1 calc R U . . .
 N00G N 0.4633(3) 0.8505(7) 0.5806(3) 0.045 Uani 1 1 d . . . . .
 N00H N 0.5811(3) 1.0319(8) 0.5385(3) 0.048 Uani 1 1 d . . . . .
 N00I N 0.6730(3) 1.0549(7) 0.5880(3) 0.044 Uani 1 1 d . . . . .
 N00J N 0.7646(3) 0.8220(7) 0.6840(3) 0.040 Uani 1 1 d . . . . .
 N00K N 0.7789(2) 0.9676(6) 0.7221(3) 0.034 Uani 1 1 d . . . . .
 C00L C 0.4659(3) 0.5167(8) 0.4439(3) 0.040 Uani 1 1 d . . . . .
 H00L H 0.481733 0.506858 0.420723 0.048 Uiso 1 1 calc R U . . .
 C00M C 0.5203(3) 0.9005(8) 0.5460(4) 0.038 Uani 1 1 d . . . . .
 C00N C 0.4501(3) 0.6090(8) 0.5028(3) 0.033 Uani 1 1 d . . . . .
 C00O C 0.4722(3) 0.5978(8) 0.4686(3) 0.035 Uani 1 1 d . . . . .
 H00O H 0.491228 0.643805 0.462046 0.043 Uiso 1 1 calc R U . . .
 C00P C 0.4543(3) 0.6972(8) 0.5301(3) 0.036 Uani 1 1 d . . . . .
 C00Q C 0.4867(3) 0.8320(8) 0.5493(3) 0.036 Uani 1 1 d . . . . .
 C00R C 0.8053(3) 0.9215(8) 0.7531(3) 0.036 Uani 1 1 d . . . . .
 C00S C 0.7913(3) 0.7853(8) 0.7163(3) 0.036 Uani 1 1 d . . . . .
 C00T C 0.7588(3) 0.9168(8) 0.6878(3) 0.037 Uani 1 1 d . . . . .
 C00U C 0.4345(3) 0.7842(8) 0.5842(3) 0.040 Uani 1 1 d . . . . .
 N00V N 0.8749(4) 0.9800(9) 0.8617(4) 0.067 Uani 1 1 d . . . . .
 H00V H 0.889050 0.950399 0.884817 0.081 Uiso 1 1 calc R U . . .
 C00W C 0.4183(3) 0.4634(9) 0.4862(4) 0.043 Uani 1 1 d . . . . .
 H00W H 0.400592 0.415261 0.493311 0.050 Uiso 1 1 calc R U . . .
 N00X N 0.8067(4) 0.4936(9) 0.7199(5) 0.078 Uani 1 1 d . . . . .
 C00Y C 0.5386(3) 0.9054(9) 0.5087(4) 0.043 Uani 1 1 d . . . . .
 H00Y H 0.530541 0.863598 0.484663 0.050 Uiso 1 1 calc R U . . .
 C00Z C 0.7044(4) 0.9143(9) 0.6188(4) 0.051 Uani 1 1 d . . . . .
 H00Z H 0.706043 0.848881 0.617371 0.050 Uiso 1 1 calc R U . . .
 C010 C 0.8521(3) 0.9283(8) 0.8270(3) 0.042 Uani 1 1 d . . . . .
 H010 H 0.852769 0.862701 0.828134 0.050 Uiso 1 1 calc R U . . .
 C011 C 0.7297(3) 0.9640(8) 0.6526(3) 0.037 Uani 1 1 d . . . . .
 C012 C 0.4224(3) 0.5431(8) 0.5121(3) 0.039 Uani 1 1 d . . . . .
 H012 H 0.406631 0.551627 0.535393 0.050 Uiso 1 1 calc R U . . .
 C013 C 0.7266(3) 1.0592(8) 0.6532(4) 0.043 Uani 1 1 d . . . . .
 H013 H 0.744002 1.094810 0.675304 0.050 Uiso 1 1 calc R U . . .
 C014 C 0.4070(5) 0.8018(11) 0.6168(5) 0.073 Uani 1 1 d . . . . .
 C015 C 0.8528(3) 1.1135(9) 0.8280(4) 0.042 Uani 1 1 d . . . . .
 H015 H 0.852671 1.179173 0.828568 0.050 Uiso 1 1 calc R U . . .
 C016 C 0.6768(3) 0.9635(9) 0.5875(4) 0.048 Uani 1 1 d . . . . .
 H016 H 0.659513 0.930005 0.564425 0.050 Uiso 1 1 calc R U . . .
 C017 C 0.5695(3) 0.9724(8) 0.5063(4) 0.043 Uani 1 1 d . . . . .
 H017 H 0.582298 0.974699 0.480407 0.050 Uiso 1 1 calc R U . . .
 C018 C 0.8292(3) 0.9719(8) 0.7919(4) 0.042 Uani 1 1 d . . . . .
 C019 C 0.7968(5) 0.6835(10) 0.7172(5) 0.062 Uani 1 1 d . . . . .
 C01A C 0.6975(3) 1.1010(9) 0.6209(4) 0.047 Uani 1 1 d . . . . .
 H01A H 0.694677 1.166253 0.621938 0.050 Uiso 1 1 calc R U . . .
 C01B C 0.5627(4) 1.0293(12) 0.5760(4) 0.066 Uani 1 1 d . . . . .
 H01B H 0.570553 1.072888 0.599381 0.050 Uiso 1 1 calc R U . . .
 N01C N 0.3542(4) 0.8310(9) 0.6785(4) 0.073 Uani 1 1 d . . . . .
 H01C H 0.336849 0.842395 0.697129 0.087 Uiso 1 1 calc R U . A 1
 C01D C 0.7735(5) 0.6298(9) 0.6846(5) 0.062 Uani 1 1 d . . . . .
 H01D H 0.754174 0.656945 0.660988 0.050 Uiso 1 1 calc R U . . .
 C01E C 0.5315(4) 0.9605(11) 0.5798(4) 0.062 Uani 1 1 d . . . . .
 H01E H 0.518978 0.957433 0.605822 0.050 Uiso 1 1 calc R U . . .
 C01F C 0.3430(5) 0.7775(11) 0.6430(5) 0.073 Uani 1 1 d . . . . .
 H01F H 0.315798 0.750743 0.638618 0.050 Uiso 1 1 calc R U . . .
 C01G C 0.8284(3) 1.0704(8) 0.7919(4) 0.042 Uani 1 1 d . . . . .
 H01G H 0.811925 1.104604 0.768483 0.050 Uiso 1 1 calc R U . . .
 C01H C 0.3680(5) 0.7586(11) 0.6127(5) 0.073 Uani 1 1 d . . . . .
 H01H H 0.359096 0.716448 0.588910 0.050 Uiso 1 1 calc R U . . .
 C01I C 0.8274(5) 0.5486(10) 0.7508(5) 0.062 Uani 1 1 d . . . . .
 H01I H 0.846772 0.521928 0.774484 0.050 Uiso 1 1 calc R U . . .
 C01J C 0.7795(6) 0.5298(11) 0.6872(7) 0.087 Uani 1 1 d . . . . .
 H01J H 0.763682 0.490820 0.665337 0.050 Uiso 1 1 calc R U . . .
 C01K C 0.8222(5) 0.6403(10) 0.7503(5) 0.062 Uani 1 1 d . . . . .
 H01K H 0.837048 0.675995 0.774163 0.050 Uiso 1 1 calc R U . . .
 C01L C 0.4193(6) 0.8591(11) 0.6533(5) 0.073 Uani 1 1 d . . . . .
 H01L H 0.445017 0.892065 0.656756 0.050 Uiso 1 1 calc R U . . .
 C01M C 0.3929(5) 0.8672(11) 0.6849(6) 0.073 Uani 1 1 d . . . . .
 H01M H 0.402738 0.899541 0.711968 0.050 Uiso 1 1 calc R U . . .
 Zn Zn 0.30157(16) 0.8521(3) 0.70993(16) 0.055 Uani 0.407(3) 1 d . . P A 2
 Cl Cl 0.2428(4) 0.7946(7) 0.6768(4) 0.080 Uani 0.407(3) 1 d . . P A 2
 Cl1A Cl 0.3291(4) 0.8168(7) 0.7816(4) 0.080 Uani 0.407(3) 1 d . . P A 2
 C2 C 0.5282(14) 1.304(4) 0.6513(15) 0.078 Uani 0.3333 1 d . . P . .
 H2 H 0.524307 1.346414 0.627046 0.093 Uiso 0.3333 1 calc R U P . .
 C3 C 0.5577(15) 1.144(4) 0.6855(15) 0.078 Uani 0.3333 1 d . . P . .
 H3A H 0.555123 1.075509 0.685094 0.093 Uiso 0.3333 1 calc R U P . .
 H3B H 0.584407 1.160221 0.675864 0.093 Uiso 0.3333 1 calc R U P . .
 C4 C 0.5579(14) 1.177(4) 0.7302(15) 0.078 Uani 0.3333 1 d . . P . .
 H4 H 0.550563 1.139301 0.753145 0.093 Uiso 0.3333 1 calc R U P . .
 C11 C 0.5175(14) 1.190(4) 0.6501(15) 0.078 Uani 0.3333 1 d . . P . .
 H11A H 0.490533 1.177431 0.660236 0.093 Uiso 0.3333 1 calc R U P . .
 H11B H 0.516145 1.164450 0.619623 0.093 Uiso 0.3333 1 calc R U P . .
 C18 C 0.5435(14) 1.321(4) 0.6951(15) 0.078 Uani 0.3333 1 d . . P . .
 H18 H 0.537081 1.382285 0.703082 0.093 Uiso 0.3333 1 calc R U P . .
 C19 C 0.5695(14) 1.267(4) 0.7371(15) 0.078 Uani 0.3333 1 d . . P . .
 H19 H 0.588714 1.292156 0.761327 0.093 Uiso 0.3333 1 calc R U P . .
 C1 C 0.4350(19) 0.593(4) 0.689(2) 0.124(8) Uani 0.25 1 d D U P . .
 H1A H 0.454249 0.590863 0.718091 0.148 Uiso 0.25 1 calc R U P . .
 H1B H 0.433876 0.657508 0.678496 0.148 Uiso 0.25 1 calc R U P . .
 C5 C 0.391(2) 0.567(4) 0.6973(19) 0.124(8) Uani 0.25 1 d D U P . .
 H5A H 0.394497 0.523097 0.722777 0.148 Uiso 0.25 1 calc R U P . .
 H5B H 0.377760 0.623272 0.706420 0.148 Uiso 0.25 1 calc R U P . .
 C6 C 0.3622(15) 0.523(4) 0.658(2) 0.124(8) Uani 0.25 1 d D U P . .
 H6A H 0.346692 0.472691 0.669997 0.148 Uiso 0.25 1 calc R U P . .
 H6B H 0.341208 0.570628 0.645652 0.148 Uiso 0.25 1 calc R U P . .
 C7 C 0.3816(18) 0.485(4) 0.6199(18) 0.124(8) Uani 0.25 1 d D U P . .
 H7A H 0.379045 0.531628 0.595815 0.148 Uiso 0.25 1 calc R U P . .
 H7B H 0.365429 0.429695 0.607680 0.148 Uiso 0.25 1 calc R U P . .
 C8 C 0.4276(18) 0.458(3) 0.633(2) 0.124(8) Uani 0.25 1 d D U P . .
 H8A H 0.438457 0.439145 0.605633 0.148 Uiso 0.25 1 calc R U P . .
 H8B H 0.429829 0.403579 0.653091 0.148 Uiso 0.25 1 calc R U P . .
 C9 C 0.4549(16) 0.535(4) 0.656(2) 0.124(8) Uani 0.25 1 d D U P . .
 H9A H 0.462383 0.577339 0.632820 0.148 Uiso 0.25 1 calc R U P . .
 H9B H 0.481357 0.508237 0.672188 0.148 Uiso 0.25 1 calc R U P . .

loop_
  _atom_site_aniso_label
  _atom_site_aniso_U_11
  _atom_site_aniso_U_22
  _atom_site_aniso_U_33
  _atom_site_aniso_U_23
  _atom_site_aniso_U_13
  _atom_site_aniso_U_12
 Zn01 0.057 0.026 0.050 0.000 0.000 0.007
 Zn02 0.0453(7) 0.0359(11) 0.0617(9) 0.0117(7) -0.0278(6) -0.0090(7)
 Zn03 0.086 0.018 0.065 0.000 0.026 0.000
 Cl04 0.0614(16) 0.034(2) 0.089(2) 0.0057(16) -0.0332(15) 0.0005(14)
 Cl05 0.077 0.027 0.087 0.007 0.000 0.000
 Cl06 0.0637(17) 0.084(3) 0.0608(17) 0.0195(18) -0.0132(14) -0.0139(18)
 Cl07 0.076 0.070 0.054 0.000 0.000 0.026
 Cl00 0.124 0.029 0.098 0.005 0.048 0.000
 Cl1 0.124 0.029 0.098 0.005 0.048 0.000
 N00A 0.034 0.020 0.047 0.002 0.000 0.000
 C00B 0.054 0.017 0.052 0.000 0.000 0.000
 N00D 0.043 0.024 0.046 0.005 0.000 0.000
 N00E 0.042 0.037 0.046 0.000 0.000 0.004
 N00F 0.053 0.007 0.055 0.000 0.000 0.003
 N00G 0.048 0.034 0.049 0.000 0.000 0.007
 N00H 0.046 0.036 0.059 0.011 0.000 0.000
 N00I 0.045 0.032 0.051 0.006 0.000 0.000
 N00J 0.051 0.022 0.046 0.000 0.000 0.000
 N00K 0.046 0.003 0.048 0.002 0.000 0.000
 C00L 0.040 0.034 0.044 0.012 0.000 0.004
 C00M 0.036 0.019 0.057 0.003 0.000 0.004
 C00N 0.032 0.027 0.037 0.004 0.000 0.002
 C00O 0.039 0.027 0.038 0.007 0.000 0.000
 C00P 0.040 0.025 0.041 0.006 0.000 0.000
 C00Q 0.033 0.023 0.049 0.009 0.000 0.000
 C00R 0.049 0.008 0.048 0.000 0.000 0.002
 C00S 0.043 0.014 0.049 0.000 0.002 0.001
 C00T 0.044 0.023 0.040 0.000 0.000 0.000
 C00U 0.050 0.026 0.042 0.000 0.000 0.000
 N00V 0.077 0.057 0.064 0.003 0.000 0.000
 C00W 0.040 0.032 0.055 0.000 0.000 0.000
 N00X 0.111 0.035 0.103 0.031 0.060 0.025
 C00Y 0.044 0.032 0.050 0.009 0.000 0.000
 C00Z 0.064 0.023 0.061 0.000 0.000 0.000
 C010 0.054 0.017 0.052 0.000 0.000 0.000
 C011 0.045 0.012 0.050 0.000 0.000 0.000
 C012 0.036 0.028 0.049 0.003 0.000 0.000
 C013 0.044 0.028 0.053 0.000 0.000 0.000
 C014 0.103 0.037 0.088 0.003 0.047 0.008
 C015 0.054 0.017 0.052 0.000 0.000 0.000
 C016 0.055 0.027 0.057 0.003 0.000 0.000
 C017 0.047 0.020 0.058 0.001 0.000 0.000
 C018 0.054 0.017 0.052 0.000 0.000 0.000
 C019 0.094 0.018 0.074 0.000 0.010 0.008
 C01A 0.056 0.012 0.068 0.009 0.000 0.000
 C01B 0.080 0.055 0.059 0.000 0.000 0.000
 N01C 0.103 0.037 0.088 0.003 0.047 0.008
 C01D 0.094 0.018 0.074 0.000 0.010 0.008
 C01E 0.067 0.057 0.057 0.000 0.001 0.000
 C01F 0.103 0.037 0.088 0.003 0.047 0.008
 C01G 0.054 0.017 0.052 0.000 0.000 0.000
 C01H 0.103 0.037 0.088 0.003 0.047 0.008
 C01I 0.094 0.018 0.074 0.000 0.010 0.008
 C01J 0.127 0.018 0.130 0.000 0.063 0.000
 C01K 0.094 0.018 0.074 0.000 0.010 0.008
 C01L 0.103 0.037 0.088 0.003 0.047 0.008
 C01M 0.103 0.037 0.088 0.003 0.047 0.008
 Zn 0.086 0.018 0.065 0.000 0.026 0.000
 Cl 0.124 0.029 0.098 0.005 0.048 0.000
 Cl1A 0.124 0.029 0.098 0.005 0.048 0.000
 C2 0.075 0.088 0.069 0.000 0.006 0.011
 C3 0.075 0.088 0.069 0.000 0.006 0.011
 C4 0.075 0.088 0.069 0.000 0.006 0.011
 C11 0.075 0.088 0.069 0.000 0.006 0.011
 C18 0.075 0.088 0.069 0.000 0.006 0.011
 C19 0.075 0.088 0.069 0.000 0.006 0.011
 C1 0.187(17) 0.035(15) 0.176(17) 0.056(13) 0.108(14) 0.028(14)
 C5 0.187(17) 0.035(15) 0.176(17) 0.056(13) 0.108(14) 0.028(14)
 C6 0.187(17) 0.035(15) 0.176(17) 0.056(13) 0.108(14) 0.028(14)
 C7 0.187(17) 0.035(15) 0.176(17) 0.056(13) 0.108(14) 0.028(14)
 C8 0.187(17) 0.035(15) 0.176(17) 0.056(13) 0.108(14) 0.028(14)
 C9 0.187(17) 0.035(15) 0.176(17) 0.056(13) 0.108(14) 0.028(14)

_geom_special_details
;
 All esds (except the esd in the dihedral angle between two l.s. planes)
 are estimated using the full covariance matrix.  The cell esds are taken
 into account individually in the estimation of esds in distances, angles
 and torsion angles; correlations between esds in cell parameters are only
 used when they are defined by crystal symmetry.  An approximate (isotropic)
 treatment of cell esds is used for estimating esds involving l.s. planes.
;
loop_
  _geom_bond_atom_site_label_1
  _geom_bond_atom_site_label_2
  _geom_bond_distance
  _geom_bond_site_symmetry_2
  _geom_bond_publ_flag
 Zn01 Cl05 2.207(4) . ?
 Zn01 Cl07 2.207(4) . ?
 Zn01 C00B 2.076(11) 8_465 ?
 Zn01 N00D 2.051(9) . ?
 Zn02 Cl04 2.218(4) . ?
 Zn02 Cl06 2.183(4) . ?
 Zn02 N00H 2.072(10) . ?
 Zn02 N00I 2.060(9) . ?
 Zn03 Cl00 2.181(9) . ?
 Zn03 Cl1 2.207(9) . ?
 Zn03 N00X 2.099(13) 3_455 ?
 Zn03 N01C 2.051(12) . ?
 N00A C00P 1.358(13) . ?
 N00A C00Q 1.323(14) . ?
 C00B N00V 1.317(16) . ?
 C00B C015 1.310(15) . ?
 N00D C00L 1.334(14) . ?
 N00D C00W 1.348(14) . ?
 N00E C00P 1.322(14) . ?
 N00E C00U 1.339(15) . ?
 N00F H00F 0.8800 . ?
 N00F C00R 1.322(14) . ?
 N00F C00S 1.354(13) . ?
 N00G C00Q 1.341(14) . ?
 N00G C00U 1.353(15) . ?
 N00H C017 1.308(15) . ?
 N00H C01B 1.376(17) . ?
 N00I C016 1.328(16) . ?
 N00I C01A 1.340(15) . ?
 N00J C00S 1.303(13) . ?
 N00J C00T 1.392(15) . ?
 N00K C00R 1.335(13) . ?
 N00K C00T 1.347(13) . ?
 C00L H00L 0.9500 . ?
 C00L C00O 1.388(16) . ?
 C00M C00Q 1.486(15) . ?
 C00M C00Y 1.368(16) . ?
 C00M C01E 1.344(17) . ?
 C00N C00O 1.368(14) . ?
 C00N C00P 1.514(16) . ?
 C00N C012 1.372(15) . ?
 C00O H00O 0.9500 . ?
 C00R C018 1.483(14) . ?
 C00S C019 1.483(19) . ?
 C00T C011 1.463(13) . ?
 C00U C014 1.463(18) . ?
 N00V H00V 0.8800 . ?
 N00V C010 1.392(15) . ?
 C00W H00W 0.9500 . ?
 C00W C012 1.388(16) . ?
 N00X C01I 1.320(19) . ?
 N00X C01J 1.32(2) . ?
 N00X Zn 2.072(14) 3_545 ?
 C00Y H00Y 0.9500 . ?
 C00Y C017 1.403(16) . ?
 C00Z H00Z 0.9500 . ?
 C00Z C011 1.395(15) . ?
 C00Z C016 1.382(16) . ?
 C010 H010 0.9500 . ?
 C010 C018 1.345(15) . ?
 C011 C013 1.382(16) . ?
 C012 H012 0.9500 . ?
 C013 H013 0.9500 . ?
 C013 C01A 1.375(15) . ?
 C014 C01H 1.39(2) . ?
 C014 C01L 1.39(2) . ?
 C015 H015 0.9500 . ?
 C015 C01G 1.383(15) . ?
 C016 H016 0.9500 . ?
 C017 H017 0.9500 . ?
 C018 C01G 1.425(17) . ?
 C019 C01D 1.38(2) . ?
 C019 C01K 1.336(19) . ?
 C01A H01A 0.9500 . ?
 C01B H01B 0.9500 . ?
 C01B C01E 1.44(2) . ?
 N01C H01C 0.8800 . ?
 N01C C01F 1.324(19) . ?
 N01C C01M 1.34(2) . ?
 N01C Zn 2.114(13) . ?
 C01D H01D 0.9500 . ?
 C01D C01J 1.46(2) . ?
 C01E H01E 0.9500 . ?
 C01F H01F 0.9500 . ?
 C01F C01H 1.36(2) . ?
 C01G H01G 0.9500 . ?
 C01H H01H 0.9500 . ?
 C01I H01I 0.9500 . ?
 C01I C01K 1.337(19) . ?
 C01J H01J 0.9500 . ?
 C01K H01K 0.9500 . ?
 C01L H01L 0.9500 . ?
 C01L C01M 1.40(2) . ?
 C01M H01M 0.9500 . ?
 Zn Cl 2.157(13) . ?
 Zn Cl1A 2.262(12) . ?
 C2 H2 0.9500 . ?
 C2 C11 1.69(8) . ?
 C2 C18 1.36(6) . ?
 C3 H3A 0.9900 . ?
 C3 H3B 0.9900 . ?
 C3 C4 1.44(6) . ?
 C3 C11 1.67(6) . ?
 C4 H4 0.9500 . ?
 C4 C19 1.36(7) . ?
 C11 H11A 0.9900 . ?
 C11 H11B 0.9900 . ?
 C18 H18 0.9500 . ?
 C18 C19 1.60(6) . ?
 C19 H19 0.9500 . ?
 C1 H1A 0.9900 . ?
 C1 H1B 0.9900 . ?
 C1 C5 1.525(16) . ?
 C1 C9 1.524(16) . ?
 C5 H5A 0.9900 . ?
 C5 H5B 0.9900 . ?
 C5 C6 1.519(16) . ?
 C6 H6A 0.9900 . ?
 C6 H6B 0.9900 . ?
 C6 C7 1.521(16) . ?
 C7 H7A 0.9900 . ?
 C7 H7B 0.9900 . ?
 C7 C8 1.523(16) . ?
 C8 H8A 0.9900 . ?
 C8 H8B 0.9900 . ?
 C8 C9 1.523(16) . ?
 C9 H9A 0.9900 . ?
 C9 H9B 0.9900 . ?

loop_
  _geom_angle_atom_site_label_1
  _geom_angle_atom_site_label_2
  _geom_angle_atom_site_label_3
  _geom_angle
  _geom_angle_site_symmetry_1
  _geom_angle_site_symmetry_3
  _geom_angle_publ_flag
 Cl07 Zn01 Cl05 127.73(17) . . ?
 C00B Zn01 Cl05 107.6(3) 8_465 . ?
 C00B Zn01 Cl07 105.1(3) 8_465 . ?
 N00D Zn01 Cl05 109.1(3) . . ?
 N00D Zn01 Cl07 105.3(3) . . ?
 N00D Zn01 C00B 98.0(4) . 8_465 ?
 Cl06 Zn02 Cl04 128.74(17) . . ?
 N00H Zn02 Cl04 108.8(3) . . ?
 N00H Zn02 Cl06 104.2(3) . . ?
 N00I Zn02 Cl04 105.8(3) . . ?
 N00I Zn02 Cl06 107.4(3) . . ?
 N00I Zn02 N00H 97.5(4) . . ?
 Cl00 Zn03 Cl1 122.8(3) . . ?
 N00X Zn03 Cl00 107.5(5) 3_455 . ?
 N00X Zn03 Cl1 107.7(5) 3_455 . ?
 N01C Zn03 Cl00 98.9(4) . . ?
 N01C Zn03 Cl1 117.1(5) . . ?
 N01C Zn03 N00X 100.2(5) . 3_455 ?
 C00Q N00A C00P 113.5(9) . . ?
 N00V C00B Zn01 124.0(8) . 8_566 ?
 N00V C00B C015 117.3(11) . . ?
 C015 C00B Zn01 118.0(9) . 8_566 ?
 C00L N00D Zn01 121.3(7) . . ?
 C00W N00D Zn01 119.3(7) . . ?
 C00W N00D C00L 118.3(10) . . ?
 C00P N00E C00U 115.3(10) . . ?
 C00R N00F H00F 121.9 . . ?
 C00R N00F C00S 116.1(9) . . ?
 C00S N00F H00F 121.9 . . ?
 C00Q N00G C00U 113.4(10) . . ?
 C017 N00H Zn02 124.5(8) . . ?
 C017 N00H C01B 119.4(11) . . ?
 C01B N00H Zn02 115.8(9) . . ?
 C016 N00I Zn02 121.6(7) . . ?
 C016 N00I C01A 117.4(9) . . ?
 C01A N00I Zn02 121.0(8) . . ?
 C00S N00J C00T 114.9(9) . . ?
 C00R N00K C00T 116.0(9) . . ?
 N00D C00L H00L 118.6 . . ?
 N00D C00L C00O 122.7(10) . . ?
 C00O C00L H00L 118.6 . . ?
 C00Y C00M C00Q 121.2(10) . . ?
 C00Y C00M C01E 119.9(11) . . ?
 C01E C00M C00Q 118.9(11) . . ?
 C00O C00N C00P 120.4(10) . . ?
 C00O C00N C012 121.3(10) . . ?
 C012 C00N C00P 118.2(9) . . ?
 C00L C00O H00O 121.2 . . ?
 C00N C00O C00L 117.6(10) . . ?
 C00N C00O H00O 121.2 . . ?
 N00A C00P C00N 117.5(9) . . ?
 N00E C00P N00A 125.5(10) . . ?
 N00E C00P C00N 117.0(9) . . ?
 N00A C00Q N00G 127.2(10) . . ?
 N00A C00Q C00M 117.7(9) . . ?
 N00G C00Q C00M 115.1(10) . . ?
 N00F C00R N00K 124.3(9) . . ?
 N00F C00R C018 115.8(9) . . ?
 N00K C00R C018 119.8(10) . . ?
 N00F C00S C019 116.0(10) . . ?
 N00J C00S N00F 125.2(11) . . ?
 N00J C00S C019 118.7(10) . . ?
 N00J C00T C011 118.6(9) . . ?
 N00K C00T N00J 123.1(9) . . ?
 N00K C00T C011 118.3(10) . . ?
 N00E C00U N00G 125.0(10) . . ?
 N00E C00U C014 118.9(11) . . ?
 N00G C00U C014 116.0(11) . . ?
 C00B N00V H00V 118.5 . . ?
 C00B N00V C010 123.1(11) . . ?
 C010 N00V H00V 118.5 . . ?
 N00D C00W H00W 118.9 . . ?
 N00D C00W C012 122.3(11) . . ?
 C012 C00W H00W 118.9 . . ?
 C01I N00X Zn03 111.7(10) . 3_545 ?
 C01I N00X Zn 135.9(11) . 3_545 ?
 C01J N00X Zn03 129.2(13) . 3_545 ?
 C01J N00X C01I 119.1(14) . . ?
 C01J N00X Zn 104.9(13) . 3_545 ?
 C00M C00Y H00Y 120.2 . . ?
 C00M C00Y C017 119.7(11) . . ?
 C017 C00Y H00Y 120.2 . . ?
 C011 C00Z H00Z 121.1 . . ?
 C016 C00Z H00Z 121.1 . . ?
 C016 C00Z C011 117.9(12) . . ?
 N00V C010 H010 120.2 . . ?
 C018 C010 N00V 119.6(12) . . ?
 C018 C010 H010 120.2 . . ?
 C00Z C011 C00T 121.2(11) . . ?
 C013 C011 C00T 119.6(9) . . ?
 C013 C011 C00Z 119.2(10) . . ?
 C00N C012 C00W 117.6(10) . . ?
 C00N C012 H012 121.2 . . ?
 C00W C012 H012 121.2 . . ?
 C011 C013 H013 120.9 . . ?
 C01A C013 C011 118.1(10) . . ?
 C01A C013 H013 120.9 . . ?
 C01H C014 C00U 120.5(14) . . ?
 C01L C014 C00U 121.6(15) . . ?
 C01L C014 C01H 117.9(14) . . ?
 C00B C015 H015 117.4 . . ?
 C00B C015 C01G 125.2(12) . . ?
 C01G C015 H015 117.4 . . ?
 N00I C016 C00Z 123.7(11) . . ?
 N00I C016 H016 118.2 . . ?
 C00Z C016 H016 118.2 . . ?
 N00H C017 C00Y 122.0(11) . . ?
 N00H C017 H017 119.0 . . ?
 C00Y C017 H017 119.0 . . ?
 C010 C018 C00R 122.5(11) . . ?
 C010 C018 C01G 118.5(10) . . ?
 C01G C018 C00R 119.0(9) . . ?
 C01D C019 C00S 119.9(12) . . ?
 C01K C019 C00S 122.3(13) . . ?
 C01K C019 C01D 117.7(13) . . ?
 N00I C01A C013 123.8(12) . . ?
 N00I C01A H01A 118.1 . . ?
 C013 C01A H01A 118.1 . . ?
 N00H C01B H01B 120.1 . . ?
 N00H C01B C01E 119.8(13) . . ?
 C01E C01B H01B 120.1 . . ?
 Zn03 N01C H01C 11.3 . . ?
 C01F N01C Zn03 129.4(11) . . ?
 C01F N01C H01C 121.2 . . ?
 C01F N01C Zn 108.8(11) . . ?
 C01M N01C Zn03 112.3(11) . . ?
 C01M N01C H01C 121.2 . . ?
 C01M N01C C01F 117.7(13) . . ?
 C01M N01C Zn 133.1(11) . . ?
 C019 C01D H01D 121.0 . . ?
 C019 C01D C01J 118.0(15) . . ?
 C01J C01D H01D 121.0 . . ?
 C00M C01E C01B 119.2(13) . . ?
 C00M C01E H01E 120.4 . . ?
 C01B C01E H01E 120.4 . . ?
 N01C C01F H01F 118.0 . . ?
 C01H C01F N01C 124.0(17) . . ?
 C01H C01F H01F 118.0 . . ?
 C015 C01G C018 116.3(10) . . ?
 C015 C01G H01G 121.9 . . ?
 C018 C01G H01G 121.9 . . ?
 C014 C01H H01H 120.5 . . ?
 C01F C01H C014 119.1(16) . . ?
 C01F C01H H01H 120.5 . . ?
 N00X C01I H01I 118.6 . . ?
 C01K C01I N00X 122.8(14) . . ?
 C01K C01I H01I 118.6 . . ?
 N00X C01J C01D 120.1(18) . . ?
 N00X C01J H01J 120.0 . . ?
 C01D C01J H01J 120.0 . . ?
 C019 C01K H01K 118.9 . . ?
 C01I C01K C019 122.2(14) . . ?
 C01I C01K H01K 118.9 . . ?
 C014 C01L H01L 120.7 . . ?
 C01M C01L C014 118.5(16) . . ?
 C01M C01L H01L 120.7 . . ?
 N01C C01M C01L 122.2(16) . . ?
 N01C C01M H01M 118.9 . . ?
 C01L C01M H01M 118.9 . . ?
 N00X Zn N01C 99.1(5) 3_455 . ?
 N00X Zn Cl 119.4(5) 3_455 . ?
 N00X Zn Cl1A 94.2(5) 3_455 . ?
 N01C Zn Cl 116.6(5) . . ?
 N01C Zn Cl1A 100.9(5) . . ?
 Cl Zn Cl1A 122.0(4) . . ?
 C11 C2 H2 128.1 . . ?
 C18 C2 H2 128.1 . . ?
 C18 C2 C11 104(4) . . ?
 H3A C3 H3B 108.1 . . ?
 C4 C3 H3A 109.6 . . ?
 C4 C3 H3B 109.6 . . ?
 C4 C3 C11 110(4) . . ?
 C11 C3 H3A 109.6 . . ?
 C11 C3 H3B 109.6 . . ?
 C3 C4 H4 122.5 . . ?
 C19 C4 C3 115(5) . . ?
 C19 C4 H4 122.5 . . ?
 C2 C11 H11A 110.9 . . ?
 C2 C11 H11B 110.9 . . ?
 C3 C11 C2 104(4) . . ?
 C3 C11 H11A 110.9 . . ?
 C3 C11 H11B 110.9 . . ?
 H11A C11 H11B 109.0 . . ?
 C2 C18 H18 111.1 . . ?
 C2 C18 C19 138(5) . . ?
 C19 C18 H18 111.1 . . ?
 C4 C19 C18 105(4) . . ?
 C4 C19 H19 127.7 . . ?
 C18 C19 H19 127.7 . . ?
 H1A C1 H1B 107.0 . . ?
 C5 C1 H1A 107.5 . . ?
 C5 C1 H1B 107.5 . . ?
 C5 C1 C9 119(2) . . ?
 C9 C1 H1A 107.5 . . ?
 C9 C1 H1B 107.5 . . ?
 C1 C5 H5A 108.3 . . ?
 C1 C5 H5B 108.3 . . ?
 H5A C5 H5B 107.4 . . ?
 C6 C5 C1 116.0(19) . . ?
 C6 C5 H5A 108.3 . . ?
 C6 C5 H5B 108.3 . . ?
 C5 C6 H6A 107.9 . . ?
 C5 C6 H6B 107.9 . . ?
 H6A C6 H6B 107.2 . . ?
 C7 C6 C5 117.7(19) . . ?
 C7 C6 H6A 107.9 . . ?
 C7 C6 H6B 107.9 . . ?
 C6 C7 H7A 108.7 . . ?
 C6 C7 H7B 108.7 . . ?
 C6 C7 C8 114(2) . . ?
 H7A C7 H7B 107.6 . . ?
 C8 C7 H7A 108.7 . . ?
 C8 C7 H7B 108.7 . . ?
 C7 C8 H8A 109.0 . . ?
 C7 C8 H8B 109.0 . . ?
 C7 C8 C9 113(2) . . ?
 H8A C8 H8B 107.8 . . ?
 C9 C8 H8A 109.0 . . ?
 C9 C8 H8B 109.0 . . ?
 C1 C9 H9A 108.5 . . ?
 C1 C9 H9B 108.5 . . ?
 C8 C9 C1 115.1(19) . . ?
 C8 C9 H9A 108.5 . . ?
 C8 C9 H9B 108.5 . . ?
 H9A C9 H9B 107.5 . . ?

loop_
  _geom_torsion_atom_site_label_1
  _geom_torsion_atom_site_label_2
  _geom_torsion_atom_site_label_3
  _geom_torsion_atom_site_label_4
  _geom_torsion
  _geom_torsion_site_symmetry_1
  _geom_torsion_site_symmetry_2
  _geom_torsion_site_symmetry_3
  _geom_torsion_site_symmetry_4
  _geom_torsion_publ_flag
 Zn01 C00B N00V C010 -166.5(9) 8_566 . . . ?
 Zn01 C00B C015 C01G 168.1(9) 8_566 . . . ?
 Zn01 N00D C00L C00O 164.1(7) . . . . ?
 Zn01 N00D C00W C012 -163.4(7) . . . . ?
 Zn02 N00H C017 C00Y 173.1(8) . . . . ?
 Zn02 N00H C01B C01E -172.7(10) . . . . ?
 Zn02 N00I C016 C00Z -179.2(9) . . . . ?
 Zn02 N00I C01A C013 -179.5(9) . . . . ?
 Zn03 N00X C01I C01K 179.0(12) 3_545 . . . ?
 Zn03 N00X C01J C01D -177.4(10) 3_545 . . . ?
 Zn03 N01C C01F C01H -171.7(12) . . . . ?
 Zn03 N01C C01M C01L 179.6(12) . . . . ?
 C00B N00V C010 C018 -1.9(19) . . . . ?
 C00B C015 C01G C018 -0.1(18) . . . . ?
 N00D C00L C00O C00N 2.2(14) . . . . ?
 N00D C00W C012 C00N -3.9(14) . . . . ?
 N00E C00U C014 C01H -21(2) . . . . ?
 N00E C00U C014 C01L 157.0(13) . . . . ?
 N00F C00R C018 C010 -12.2(16) . . . . ?
 N00F C00R C018 C01G 167.1(10) . . . . ?
 N00F C00S C019 C01D 176.9(13) . . . . ?
 N00F C00S C019 C01K 0(2) . . . . ?
 N00G C00U C014 C01H 156.8(13) . . . . ?
 N00G C00U C014 C01L -25(2) . . . . ?
 N00H C01B C01E C00M -1(2) . . . . ?
 N00J C00S C019 C01D 0(2) . . . . ?
 N00J C00S C019 C01K -177.0(13) . . . . ?
 N00J C00T C011 C00Z 7.8(16) . . . . ?
 N00J C00T C011 C013 -173.5(10) . . . . ?
 N00K C00R C018 C010 171.3(11) . . . . ?
 N00K C00R C018 C01G -9.4(16) . . . . ?
 N00K C00T C011 C00Z -172.7(10) . . . . ?
 N00K C00T C011 C013 5.9(15) . . . . ?
 C00L N00D C00W C012 5.5(14) . . . . ?
 C00M C00Y C017 N00H -0.8(17) . . . . ?
 C00O C00N C00P N00A -6.8(13) . . . . ?
 C00O C00N C00P N00E 173.1(9) . . . . ?
 C00O C00N C012 C00W 1.4(14) . . . . ?
 C00P N00A C00Q N00G -2.8(14) . . . . ?
 C00P N00A C00Q C00M 175.5(8) . . . . ?
 C00P N00E C00U N00G 1.2(15) . . . . ?
 C00P N00E C00U C014 178.7(11) . . . . ?
 C00P C00N C00O C00L -177.8(8) . . . . ?
 C00P C00N C012 C00W 178.7(8) . . . . ?
 C00Q N00A C00P N00E 3.5(13) . . . . ?
 C00Q N00A C00P C00N -176.7(8) . . . . ?
 C00Q N00G C00U N00E -0.5(15) . . . . ?
 C00Q N00G C00U C014 -178.1(10) . . . . ?
 C00Q C00M C00Y C017 178.5(10) . . . . ?
 C00Q C00M C01E C01B -177.5(11) . . . . ?
 C00R N00F C00S N00J 5.3(16) . . . . ?
 C00R N00F C00S C019 -171.9(11) . . . . ?
 C00R N00K C00T N00J -0.1(15) . . . . ?
 C00R N00K C00T C011 -179.5(9) . . . . ?
 C00R C018 C01G C015 -177.1(10) . . . . ?
 C00S N00F C00R N00K -5.6(16) . . . . ?
 C00S N00F C00R C018 178.1(10) . . . . ?
 C00S N00J C00T N00K -0.3(15) . . . . ?
 C00S N00J C00T C011 179.1(10) . . . . ?
 C00S C019 C01D C01J -179.1(13) . . . . ?
 C00S C019 C01K C01I -179.3(14) . . . . ?
 C00T N00J C00S N00F -2.4(16) . . . . ?
 C00T N00J C00S C019 174.7(10) . . . . ?
 C00T N00K C00R N00F 3.2(16) . . . . ?
 C00T N00K C00R C018 179.4(9) . . . . ?
 C00T C011 C013 C01A -176.9(10) . . . . ?
 C00U N00E C00P N00A -2.8(14) . . . . ?
 C00U N00E C00P C00N 177.4(8) . . . . ?
 C00U N00G C00Q N00A 1.4(15) . . . . ?
 C00U N00G C00Q C00M -176.8(8) . . . . ?
 C00U C014 C01H C01F -178.9(14) . . . . ?
 C00U C014 C01L C01M -175.1(14) . . . . ?
 N00V C00B C015 C01G -3.0(19) . . . . ?
 N00V C010 C018 C00R 178.0(11) . . . . ?
 N00V C010 C018 C01G -1.3(17) . . . . ?
 C00W N00D C00L C00O -4.6(14) . . . . ?
 N00X C01I C01K C019 -3(3) . . . . ?
 C00Y C00M C00Q N00A 19.8(14) . . . . ?
 C00Y C00M C00Q N00G -161.8(10) . . . . ?
 C00Y C00M C01E C01B 0.3(18) . . . . ?
 C00Z C011 C013 C01A 1.8(17) . . . . ?
 C010 C018 C01G C015 2.2(17) . . . . ?
 C011 C00Z C016 N00I -0.2(19) . . . . ?
 C011 C013 C01A N00I -2.2(18) . . . . ?
 C012 C00N C00O C00L -0.6(14) . . . . ?
 C012 C00N C00P N00A 175.9(8) . . . . ?
 C012 C00N C00P N00E -4.2(13) . . . . ?
 C014 C01L C01M N01C -8(2) . . . . ?
 C015 C00B N00V C010 4.0(19) . . . . ?
 C016 N00I C01A C013 1.4(18) . . . . ?
 C016 C00Z C011 C00T 178.0(10) . . . . ?
 C016 C00Z C011 C013 -0.7(18) . . . . ?
 C017 N00H C01B C01E 1.1(18) . . . . ?
 C019 C01D C01J N00X -1(2) . . . . ?
 C01A N00I C016 C00Z -0.1(18) . . . . ?
 C01B N00H C017 C00Y -0.1(17) . . . . ?
 N01C C01F C01H C014 -4(2) . . . . ?
 C01D C019 C01K C01I 4(2) . . . . ?
 C01E C00M C00Q N00A -162.4(10) . . . . ?
 C01E C00M C00Q N00G 16.0(14) . . . . ?
 C01E C00M C00Y C017 0.7(16) . . . . ?
 C01F N01C C01M C01L 8(2) . . . . ?
 C01H C014 C01L C01M 3(2) . . . . ?
 C01I N00X C01J C01D 2(2) . . . . ?
 C01J N00X C01I C01K -1(2) . . . . ?
 C01K C019 C01D C01J -2(2) . . . . ?
 C01L C014 C01H C01F 3(2) . . . . ?
 C01M N01C C01F C01H -1(2) . . . . ?
 Zn N00X C01I C01K -174.7(11) 3_545 . . . ?
 Zn N00X C01J C01D 177.9(12) 3_545 . . . ?
 Zn N01C C01F C01H 172.6(13) . . . . ?
 Zn N01C C01M C01L -164.4(12) . . . . ?
 C2 C18 C19 C4 -31(8) . . . . ?
 C3 C4 C19 C18 46(5) . . . . ?
 C4 C3 C11 C2 64(5) . . . . ?
 C11 C2 C18 C19 31(7) . . . . ?
 C11 C3 C4 C19 -72(6) . . . . ?
 C18 C2 C11 C3 -40(5) . . . . ?
 C1 C5 C6 C7 17(8) . . . . ?
 C5 C1 C9 C8 2(8) . . . . ?
 C5 C6 C7 C8 24(7) . . . . ?
 C6 C7 C8 C9 -53(6) . . . . ?
 C7 C8 C9 C1 40(6) . . . . ?
 C9 C1 C5 C6 -31(8) . . . . ?

_shelx_res_file
;
TITL cyc_sc_alpha_twin_twin1_hklf4_a.res in C2/c
    cyc_sc_alpha_twin_twin1_hklf4.res
    created by SHELXL-2018/3 at 16:31:33 on 21-Sep-2020
REM Old TITL Cyc_SC_alpha_twin_twin1_hklf4 in C2/c
REM SHELXT solution in C2/c: R1 0.361, Rweak 0.059, Alpha 0.099
REM <I/s> 0.000 for 0 systematic absences, Orientation as input
REM Formula found by SHELXT: C68 N41 Cl10 Zn4
CELL 1.54184 32.3493 14.465 30.3607 90 99.999 90
ZERR 8 0.0011 0.0008 0.0012 0 0.004 0
LATT 7
SYMM -X,+Y,0.5-Z
SFAC C H Cl N Zn
UNIT 324 253.33 48 88 24
EADP C01L C014 C01H C01F N01C C01M
EADP C010 C018 C01G C015 C00B
EADP C01I C01K C019 C01D
EADP Cl1 Cl00
EADP Zn03 Zn
RIGU 0.001 0.001 Cl1A Zn Cl
EADP Cl1A Cl1
RIGU 0.001 0.001 Cl1 Zn03 Cl00
EADP Cl00 Cl
SIMU 0.01 0.01 2 N00F N00J N00K
EADP C2 C18 C19 C4 C3 C11
SIMU C1 C5 C6 C7 C8 C9
DANG 2.54 C1 C6 C1 C8 C5 C7 C6 C8 C7 C9
RIGU C1 C5 C6 C7 C8 C9
SADI 0.04 C1 C8 C6 C8 C5 C9 C5 C7 C7 C9 C1 C6
DFIX 1.54 C1 C5 C1 C9 C5 C6 C6 C7 C7 C8 C8 C9
SADI C1 C5 C5 C6 C6 C7 C7 C8 C8 C9 C9 C1
EADP C7 C1 C5 C9 C6 C8
RIGU 0.01 0.01 Cl04 Zn02 Cl06
SIMU N00K N00J N00F

L.S. 20
PLAN  50
TEMP -173
CONF
list 4
MORE -1
BOND $H
fmap 2 53
acta
REM <olex2.extras>
REM <HklSrc "%.\\Cyc_SC_alpha_twin_twin1_hklf5.hkl">
REM </olex2.extras>

WGHT    0.200000
BASF   0.45267
FVAR       0.98344   0.59313
ZN01  5    0.418914    0.350858    0.405098    11.00000   10.05661   10.02631 =
        10.05039   10.00001  -10.02675   10.00702
ZN02  5    0.630639    1.123620    0.540714    11.00000    0.04529    0.03591 =
         0.06171    0.01171   -0.02779   -0.00898
PART 1
ZN03  5    0.324074    0.854696    0.731514    21.00000   10.08605   10.01786 =
        10.06486   10.00031   10.02592  -10.00005
PART 0
CL04  3    0.615077    1.253239    0.573252    11.00000    0.06141    0.03443 =
         0.08872    0.00574   -0.03319    0.00053
CL05  3    0.383092    0.245924    0.435498    11.00000   10.07708   10.02679 =
        10.08690   10.00689  -10.02607  -10.01039
CL06  3    0.650943    1.105769    0.476310    11.00000    0.06370    0.08433 =
         0.06084    0.01954   -0.01321   -0.01393
CL07  3    0.472213    0.328155    0.369792    11.00000   10.07551   10.07035 =
        10.05426  -10.00307  -10.01532   10.02612
PART 1
CL00  3    0.268277    0.770475    0.710174    21.00000   10.12387   10.02919 =
        10.09792   10.00504   10.04844  -10.00167
CL1   3    0.362185    0.845363    0.799119    21.00000   10.12387   10.02919 =
        10.09792   10.00504   10.04844  -10.00167
PART 0
N00A  4    0.483732    0.759328    0.522475    11.00000   10.03398   10.02020 =
        10.04721   10.00201  -10.01630   10.00017
C00B  1    0.876168    1.070944    0.861477    11.00000   10.05438   10.01716 =
        10.05188  -10.00027  -10.02444   10.00015
N00D  4    0.438496    0.452089    0.451310    11.00000   10.04303   10.02370 =
        10.04587   10.00541  -10.02053  -10.00068
N00E  4    0.428767    0.707226    0.559375    11.00000   10.04170   10.03677 =
        10.04620   10.00027   10.00044   10.00419
N00F  4    0.813907    0.832435    0.750881    11.00000   10.05286   10.00724 =
        10.05462   10.00021  -10.01239   10.00309
AFIX  43
H00F  2    0.833182    0.805343    0.770708    11.00000   -1.20000
AFIX   0
N00G  4    0.463266    0.850454    0.580596    11.00000   10.04842   10.03358 =
        10.04852  -10.00161  -10.00639   10.00676
N00H  4    0.581124    1.031928    0.538479    11.00000   10.04631   10.03559 =
        10.05903   10.01124  -10.02079  -10.01297
N00I  4    0.673011    1.054860    0.587984    11.00000   10.04481   10.03182 =
        10.05139   10.00555  -10.02568  -10.00985
N00J  4    0.764570    0.822001    0.684016    11.00000   10.05096   10.02162 =
        10.04559  -10.00378  -10.01221  -10.00820
N00K  4    0.778917    0.967555    0.722094    11.00000   10.04642   10.00321 =
        10.04846   10.00171  -10.01930  -10.00487
C00L  1    0.465900    0.516723    0.443889    11.00000   10.03982   10.03417 =
        10.04400   10.01197  -10.02141   10.00447
AFIX  43
H00L  2    0.481733    0.506858    0.420723    11.00000   -1.20000
AFIX   0
C00M  1    0.520257    0.900538    0.546008    11.00000   10.03592   10.01864 =
        10.05706   10.00299  -10.01669   10.00367
C00N  1    0.450138    0.609036    0.502792    11.00000   10.03227   10.02718 =
        10.03685   10.00424  -10.01517   10.00233
C00O  1    0.472238    0.597805    0.468618    11.00000   10.03948   10.02682 =
        10.03774   10.00710  -10.01172  -10.00251
AFIX  43
H00O  2    0.491228    0.643805    0.462046    11.00000   -1.20000
AFIX   0
C00P  1    0.454298    0.697218    0.530089    11.00000   10.03957   10.02470 =
        10.04141   10.00558  -10.01584  -10.00300
C00Q  1    0.486726    0.831990    0.549324    11.00000   10.03253   10.02347 =
        10.04909   10.00856  -10.01354  -10.00444
C00R  1    0.805320    0.921520    0.753125    11.00000   10.04937   10.00835 =
        10.04795  -10.00784  -10.01854   10.00191
C00S  1    0.791318    0.785306    0.716300    11.00000   10.04300   10.01406 =
        10.04895  -10.00429   10.00208   10.00054
C00T  1    0.758760    0.916824    0.687757    11.00000   10.04392   10.02273 =
        10.04048  -10.00331  -10.01428  -10.00049
C00U  1    0.434510    0.784199    0.584178    11.00000   10.05029   10.02594 =
        10.04237  -10.00144  -10.00000  -10.00713
N00V  4    0.874875    0.979951    0.861686    11.00000   10.07738   10.05677 =
        10.06365   10.00289  -10.02352  -10.00567
AFIX  43
H00V  2    0.889050    0.950399    0.884817    11.00000   -1.20000
AFIX   0
C00W  1    0.418279    0.463433    0.486197    11.00000   10.03995   10.03226 =
        10.05468  -10.00303  -10.00577  -10.00429
AFIX  43
H00W  2    0.400592    0.415261    0.493311    11.00000   10.05000
AFIX   0
N00X  4    0.806728    0.493603    0.719906    11.00000   10.11050   10.03517 =
        10.10292   10.03061   10.05953   10.02507
C00Y  1    0.538634    0.905414    0.508745    11.00000   10.04387   10.03241 =
        10.05050   10.00872  -10.00998  -10.00281
AFIX  43
H00Y  2    0.530541    0.863598    0.484663    11.00000   10.05000
AFIX   0
C00Z  1    0.704373    0.914350    0.618819    11.00000   10.06449   10.02309 =
        10.06075  -10.00617  -10.03426  -10.00809
AFIX  43
H00Z  2    0.706043    0.848881    0.617371    11.00000   10.05000
AFIX   0
C010  1    0.852119    0.928327    0.827005    11.00000   10.05438   10.01716 =
        10.05188  -10.00027  -10.02444   10.00015
AFIX  43
H010  2    0.852769    0.862701    0.828134    11.00000   10.05000
AFIX   0
C011  1    0.729711    0.963968    0.652588    11.00000   10.04512   10.01232 =
        10.04962  -10.00052  -10.01509  -10.00555
C012  1    0.422422    0.543093    0.512084    11.00000   10.03636   10.02794 =
        10.04868   10.00348  -10.00104  -10.00272
AFIX  43
H012  2    0.406631    0.551627    0.535393    11.00000   10.05000
AFIX   0
C013  1    0.726576    1.059196    0.653189    11.00000   10.04363   10.02754 =
        10.05334  -10.00074  -10.02123  -10.00495
AFIX  43
H013  2    0.744002    1.094810    0.675304    11.00000   10.05000
AFIX   0
C014  1    0.407045    0.801783    0.616784    11.00000   10.10319   10.03733 =
        10.08826   10.00294   10.04664   10.00780
C015  1    0.852822    1.113509    0.828015    11.00000   10.05438   10.01716 =
        10.05188  -10.00027  -10.02444   10.00015
AFIX  43
H015  2    0.852671    1.179173    0.828568    11.00000   10.05000
AFIX   0
C016  1    0.676767    0.963488    0.587538    11.00000   10.05504   10.02724 =
        10.05696   10.00255  -10.02216  -10.00899
AFIX  43
H016  2    0.659513    0.930005    0.564425    11.00000   10.05000
AFIX   0
C017  1    0.569477    0.972439    0.506265    11.00000   10.04748   10.02044 =
        10.05759   10.00129  -10.00862  -10.00120
AFIX  43
H017  2    0.582298    0.974699    0.480407    11.00000   10.05000
AFIX   0
C018  1    0.829218    0.971941    0.791904    11.00000   10.05438   10.01716 =
        10.05188  -10.00027  -10.02444   10.00015
C019  1    0.796755    0.683484    0.717245    11.00000   10.09379   10.01789 =
        10.07354  -10.00340   10.00969   10.00789
C01A  1    0.697532    1.100963    0.620884    11.00000   10.05588   10.01245 =
        10.06784   10.00850  -10.02588  -10.00871
AFIX  43
H01A  2    0.694677    1.166253    0.621938    11.00000   10.05000
AFIX   0
C01B  1    0.562680    1.029308    0.576022    11.00000   10.07982   10.05542 =
        10.05873  -10.01231  -10.01125  -10.03215
AFIX  43
H01B  2    0.570553    1.072888    0.599381    11.00000   10.05000
AFIX   0
N01C  4    0.354221    0.831010    0.678469    11.00000   10.10319   10.03733 =
        10.08826   10.00294   10.04664   10.00780
AFIX  43
H01C  2    0.336849    0.842395    0.697129    11.00000   -1.20000
AFIX   0
C01D  1    0.773511    0.629766    0.684558    11.00000   10.09379   10.01789 =
        10.07354  -10.00340   10.00969   10.00789
AFIX  43
H01D  2    0.754174    0.656945    0.660988    11.00000   10.05000
AFIX   0
C01E  1    0.531508    0.960531    0.579785    11.00000   10.06732   10.05750 =
        10.05651  -10.01589   10.00076  -10.02919
AFIX  43
H01E  2    0.518978    0.957433    0.605822    11.00000   10.05000
AFIX   0
C01F  1    0.343022    0.777512    0.643040    11.00000   10.10319   10.03733 =
        10.08826   10.00294   10.04664   10.00780
AFIX  43
H01F  2    0.315798    0.750743    0.638618    11.00000   10.05000
AFIX   0
C01G  1    0.828367    1.070438    0.791932    11.00000   10.05438   10.01716 =
        10.05188  -10.00027  -10.02444   10.00015
AFIX  43
H01G  2    0.811925    1.104604    0.768483    11.00000   10.05000
AFIX   0
C01H  1    0.368032    0.758569    0.612663    11.00000   10.10319   10.03733 =
        10.08826   10.00294   10.04664   10.00780
AFIX  43
H01H  2    0.359096    0.716448    0.588910    11.00000   10.05000
AFIX   0
C01I  1    0.827378    0.548649    0.750824    11.00000   10.09379   10.01789 =
        10.07354  -10.00340   10.00969   10.00789
AFIX  43
H01I  2    0.846772    0.521928    0.774484    11.00000   10.05000
AFIX   0
C01J  1    0.779478    0.529804    0.687217    11.00000   10.12738   10.01759 =
        10.13035  -10.04684   10.06347  -10.03626
AFIX  43
H01J  2    0.763682    0.490820    0.665337    11.00000   10.05000
AFIX   0
C01K  1    0.822176    0.640327    0.750274    11.00000   10.09379   10.01789 =
        10.07354  -10.00340   10.00969   10.00789
AFIX  43
H01K  2    0.837048    0.675995    0.774163    11.00000   10.05000
AFIX   0
C01L  1    0.419264    0.859073    0.653320    11.00000   10.10319   10.03733 =
        10.08826   10.00294   10.04664   10.00780
AFIX  43
H01L  2    0.445017    0.892065    0.656756    11.00000   10.05000
AFIX   0
C01M  1    0.392911    0.867220    0.684938    11.00000   10.10319   10.03733 =
        10.08826   10.00294   10.04664   10.00780
AFIX  43
H01M  2    0.402738    0.899541    0.711968    11.00000   10.05000
AFIX   0
PART 2
ZN    5    0.301569    0.852082    0.709925   -21.00000   10.08605   10.01786 =
        10.06486   10.00031   10.02592  -10.00005
CL    3    0.242815    0.794608    0.676762   -21.00000   10.12387   10.02919 =
        10.09792   10.00504   10.04844  -10.00167
CL1A  3    0.329055    0.816808    0.781622   -21.00000   10.12387   10.02919 =
        10.09792   10.00504   10.04844  -10.00167

PART 0
C2    1    0.528157    1.304008    0.651308    10.33333   10.07462   10.08804 =
        10.06889  -10.02086   10.00635   10.01067
AFIX  43
H2    2    0.524307    1.346414    0.627046    10.33333   -1.20000
AFIX   0
C3    1    0.557652    1.143723    0.685518    10.33333   10.07462   10.08804 =
        10.06889  -10.02086   10.00635   10.01067
AFIX  23
H3A   2    0.555123    1.075509    0.685094    10.33333   -1.20000
H3B   2    0.584407    1.160221    0.675864    10.33333   -1.20000
AFIX   0
C4    1    0.557933    1.177216    0.730158    10.33333   10.07462   10.08804 =
        10.06889  -10.02086   10.00635   10.01067
AFIX  43
H4    2    0.550563    1.139301    0.753145    10.33333   -1.20000
AFIX   0
C11   1    0.517510    1.189741    0.650141    10.33333   10.07462   10.08804 =
        10.06889  -10.02086   10.00635   10.01067
AFIX  23
H11A  2    0.490533    1.177431    0.660236    10.33333   -1.20000
H11B  2    0.516145    1.164450    0.619623    10.33333   -1.20000
AFIX   0
C18   1    0.543532    1.321126    0.695098    10.33333   10.07462   10.08804 =
        10.06889  -10.02086   10.00635   10.01067
AFIX  43
H18   2    0.537081    1.382285    0.703082    10.33333   -1.20000
AFIX   0
C19   1    0.569507    1.267012    0.737053    10.33333   10.07462   10.08804 =
        10.06889  -10.02086   10.00635   10.01067
AFIX  43
H19   2    0.588714    1.292156    0.761327    10.33333   -1.20000
AFIX   0

C1    1    0.435019    0.592566    0.688931    10.25000    0.18737    0.03511 =
         0.17568    0.05594    0.10839    0.02753
AFIX  23
H1A   2    0.454249    0.590863    0.718091    10.25000   -1.20000
H1B   2    0.433876    0.657508    0.678496    10.25000   -1.20000
AFIX   0
C5    1    0.391343    0.566762    0.697303    10.25000    0.18737    0.03511 =
         0.17568    0.05594    0.10839    0.02753
AFIX  23
H5A   2    0.394497    0.523097    0.722777    10.25000   -1.20000
H5B   2    0.377760    0.623272    0.706420    10.25000   -1.20000
AFIX   0
C6    1    0.362151    0.523432    0.658170    10.25000    0.18737    0.03511 =
         0.17568    0.05594    0.10839    0.02753
AFIX  23
H6A   2    0.346692    0.472691    0.669997    10.25000   -1.20000
H6B   2    0.341208    0.570628    0.645652    10.25000   -1.20000
AFIX   0
C7    1    0.381625    0.484792    0.619915    10.25000    0.18737    0.03511 =
         0.17568    0.05594    0.10839    0.02753
AFIX  23
H7A   2    0.379045    0.531628    0.595815    10.25000   -1.20000
H7B   2    0.365429    0.429695    0.607680    10.25000   -1.20000
AFIX   0
C8    1    0.427642    0.457748    0.632889    10.25000    0.18737    0.03511 =
         0.17568    0.05594    0.10839    0.02753
AFIX  23
H8A   2    0.438457    0.439145    0.605633    10.25000   -1.20000
H8B   2    0.429829    0.403579    0.653091    10.25000   -1.20000
AFIX   0
C9    1    0.454946    0.535424    0.656011    10.25000    0.18737    0.03511 =
         0.17568    0.05594    0.10839    0.02753
AFIX  23
H9A   2    0.462383    0.577339    0.632820    10.25000   -1.20000
H9B   2    0.481357    0.508237    0.672188    10.25000   -1.20000
AFIX   0
HKLF 5




REM  cyc_sc_alpha_twin_twin1_hklf4_a.res in C2/c
REM wR2 = 0.4457, GooF = S = 1.737, Restrained GooF = 1.733 for all data
REM R1 = 0.1455 for 12700 Fo > 4sig(Fo) and 0.1717 for all 18980 data
REM 243 parameters refined using 134 restraints

END

WGHT      0.2000      0.0000

REM Highest difference peak  1.941,  deepest hole -1.762,  1-sigma level  0.243
Q1    1   0.5389  0.8599  0.6866  11.00000  0.05    1.94
Q2    1   0.4003  0.3468  0.4223  11.00000  0.05    1.61
Q3    1   0.2999  0.5361  0.4533  11.00000  0.05    1.54
Q4    1   0.2969  0.6198  0.5018  11.00000  0.05    1.48
Q5    1   0.6439  0.8459  0.4393  11.00000  0.05    1.46
Q6    1   0.3829  1.1199  0.6375  11.00000  0.05    1.41
Q7    1   0.5000  0.9508  0.7500  10.50000  0.05    1.36
Q8    1   0.6391  1.0809  0.5151  11.00000  0.05    1.36
Q9    1   0.3646  0.2422  0.5641  11.00000  0.05    1.28
Q10   1   0.2418  0.8023  0.6594  11.00000  0.05    1.25
Q11   1   0.3758  0.2556  0.5740  11.00000  0.05    1.19
Q12   1   0.4551  0.5196  0.6997  11.00000  0.05    1.17
Q13   1   0.4019  0.2364  0.4168  11.00000  0.05    1.13
Q14   1   0.4438  0.4949  0.6785  11.00000  0.05    1.10
Q15   1   0.2824  0.4388  0.4800  11.00000  0.05    0.99
Q16   1   0.7326  1.3221  0.5412  11.00000  0.05    0.98
Q17   1   0.7395  0.3828  0.5747  11.00000  0.05    0.96
Q18   1   0.4225  0.5545  0.7374  11.00000  0.05    0.95
Q19   1   0.5985  0.8830  0.3994  11.00000  0.05    0.92
Q20   1   0.4366  0.3456  0.3937  11.00000  0.05    0.92
Q21   1   0.4191  0.5342  0.6571  11.00000  0.05    0.92
Q22   1   0.8346  0.6368  0.5971  11.00000  0.05    0.92
Q23   1   0.4133  0.5040  0.6480  11.00000  0.05    0.88
Q24   1   0.3819  0.5743  0.6992  11.00000  0.05    0.88
Q25   1   0.5612  1.2026  0.6852  11.00000  0.05    0.84
Q26   1   0.5033  1.2164  0.6277  11.00000  0.05    0.84
Q27   1   0.4838  0.3342  0.3570  11.00000  0.05    0.84
Q28   1   0.3598  0.2482  0.6259  11.00000  0.05    0.81
Q29   1   0.2537  0.7953  0.7012  11.00000  0.05    0.81
Q30   1   0.5123  1.1591  0.6639  11.00000  0.05    0.78
Q31   1   0.3750  0.2234  0.6375  11.00000  0.05    0.76
Q32   1   0.5565  1.1837  0.7140  11.00000  0.05    0.75
Q33   1   0.5614  1.2959  0.7158  11.00000  0.05    0.75
Q34   1   0.3803  0.8590  0.7950  11.00000  0.05    0.74
Q35   1   0.4179  0.4444  0.7219  11.00000  0.05    0.70
Q36   1   0.3891  0.4786  0.6802  11.00000  0.05    0.69
Q37   1   0.6216  1.2207  0.5412  11.00000  0.05    0.69
Q38   1   0.3386  0.8475  0.7975  11.00000  0.05    0.69
Q39   1   0.8449  1.0677  0.7791  11.00000  0.05    0.66
Q40   1   0.4176  0.5704  0.7061  11.00000  0.05    0.65
Q41   1   0.5377  1.2186  0.6444  11.00000  0.05    0.64
Q42   1   0.7219  0.9221  0.5992  11.00000  0.05    0.59
Q43   1   0.6417  1.2055  0.5191  11.00000  0.05    0.59
Q44   1   0.8430  0.9689  0.7781  11.00000  0.05    0.58
Q45   1   0.6597  1.0411  0.4592  11.00000  0.05    0.58
Q46   1   0.4997  1.3138  0.6391  11.00000  0.05    0.57
Q47   1   0.2787  0.7408  0.7195  11.00000  0.05    0.57
Q48   1   0.4381  0.6208  0.5174  11.00000  0.05    0.56
Q49   1   0.5220  0.9878  0.5770  11.00000  0.05    0.55
Q50   1   0.4390  0.6996  0.5414  11.00000  0.05    0.54
;
_shelx_res_checksum                17196
_shelx_hkl_file
;
   0   0  -4 76599.4 213.571   1
   0   0  -6 8094.89 121.604   1
   0   0   8 35580.2 226.235   1
   0   0 -10 498.381 114.678   1
   0   0  12 7035.99 172.157   1
   0   0 -14 893.671 150.617   1
   0   0 -16 5424.74 196.096   1
   0   0  18 8011.86 227.432   1
   0   0 -20 588.308 352.461   1
  22   0  -2 34103.0 507.954  -2
   0   0  20 34103.0 507.954   1
  24   0  -2 6293.01 157.108  -2
   0   0  22 6293.01 157.108   1
 -26   0   2 3719.37 156.992  -2
   0   0 -24 3719.37 156.992   1
  28   0  -2 1559.41 166.622  -2
   0   0  26 1559.41 166.622   1
  30   0  -2 1346.20 267.915  -2
   0   0  28 1346.20 267.915   1
  32   0  -2 1207.71 263.416  -2
   0   0  30 1207.71 263.416   1
   0   0 -34 207.309 248.439   1
   0   0 -36 270.816 192.560   1
   0  -2   0 3998.67 112.253  -2
   0   2   0 3998.67 112.253   1
   0  -2  -1 21766.4 104.824   1
   0   2  -2 5294.35 82.9242   1
  -2   2   0 23171.7 166.934  -2
   0  -2  -2 23171.7 166.934   1
   0   2  -3 187489. 288.755   1
   0   2  -4 45550.0 155.078   1
  -4  -2   0 55740.5 350.750  -2
   0   2  -4 55740.5 350.750   1
   0   2  -5 4257.53 86.3669   1
   0   2  -6 65094.9 289.200   1
   0   2   7 10635.5 59.2354   1
   0   2   8 18521.6 196.294   1
   0  -2  -9 8044.92 227.563   1
  10  -2  -1 11262.5 206.716  -2
   0   2   9 11262.5 206.716   1
   0   2 -10 686.047 104.185   1
 -12   2   1 5729.95 173.355  -2
   0  -2 -11 5729.95 173.355   1
   0  -2 -12 988.934 57.6224   1
 -14   2   1 4622.12 90.1633  -2
   0  -2 -13 4622.12 90.1633   1
   0  -2 -14 1890.40 114.008   1
 -16   2   1 30632.3 282.295  -2
   0  -2 -15 30632.3 282.295   1
   0   2  16 1952.09 120.973   1
  18   2  -1 12304.8 201.215  -2
   0  -2  17 12304.8 201.215   1
   0  -2  18 441.562 124.215   1
   0  -2 -19 18450.6 497.430   1
 -20   2   1 18472.5 259.946  -2
   0  -2 -19 18472.5 259.946   1
   0  -2 -20 4640.86 207.654   1
 -22   2   2 4561.91 131.133  -2
   0  -2 -20 4561.91 131.133   1
   0  -2 -21 2002.80 86.3002   1
  24   2  -2 2688.61 120.166  -2
   0  -2  22 2688.61 120.166   1
   0   2  23 2723.98 109.811   1
  26  -2  -2 738.103 170.823  -2
   0   2  24 738.103 170.823   1
   0   2  25 5149.56 159.027   1
  28  -2  -2 799.579 95.1113  -2
   0   2  26 799.579 95.1113   1
   0   2  27 83.3371 123.462   1
 -30   2   2 530.090 210.483  -2
   0  -2 -28 530.090 210.483   1
   0   2  29 159.540 193.202   1
  32  -2  -2 1054.40 251.950  -2
   0   2  30 1054.40 251.950   1
   0   2  31 467.637 153.423   1
   0   2  32 289.973 142.653   1
   0   2  33 1891.53 164.320   1
 -36  -2   3 3005.46 331.303  -2
   0   2 -33 3005.46 331.303   1
   0   2 -34 39.3420 111.545   1
 -38   2   3 1379.13 192.562  -2
   0  -2 -35 1379.13 192.562   1
   0  -2 -36-22.2437 126.183   1
   0  -4   0 71281.9 501.400  -2
   0   4   0 71281.9 501.400   1
   0   4   1 39625.8 208.624   1
   2  -4   0 9028.72 115.215  -2
   0   4   2 9028.72 115.215   1
   0   4  -3 51074.4 226.199   1
   0   4  -4 15167.1 182.091   1
  -4   4   0 19349.0 251.697  -2
   0  -4  -4 19349.0 251.697   1
   0  -4  -5 1759.25 82.9884   1
   0  -4  -6 17878.5 147.999   1
   0   4  -7 16765.1 148.716   1
   0  -4  -8 9365.97 211.797   1
 -10   4   1 4996.43 234.230  -2
   0  -4  -9 4996.43 234.230   1
   0  -4 -10 7671.66 162.327   1
 -12   4   1 19420.3 273.878  -2
   0  -4 -11 19420.3 273.878   1
   0  -4 -12 3631.19 156.425   1
 -14   4   1 2838.60 196.570  -2
   0  -4 -13 2838.60 196.570   1
   0  -4 -14 80152.0 445.104   1
  16   4  -1 13760.6 230.665  -2
   0  -4  15 13760.6 230.665   1
   0  -4 -16 8826.97 162.038   1
  18   4  -1 1428.29 149.693  -2
   0  -4  17 1428.29 149.693   1
   0  -4 -18 3460.78 135.972   1
   0  -4 -19 51.5931 273.802   1
 -20   4   1 2075.20 129.122  -2
   0  -4 -19 2075.20 129.122   1
   0  -4 -20 5763.51 387.804   1
 -22   4   2 6771.84 146.674  -2
   0  -4 -20 6771.84 146.674   1
   0  -4 -21 733.038 98.9056   1
  24  -4  -2 14918.1 218.152  -2
   0   4  22 14918.1 218.152   1
   0   4  23 658.659 123.722   1
  26  -4  -2 2453.72 188.904  -2
   0   4  24 2453.72 188.904   1
   0   4  25 402.857 139.055   1
  28  -4  -2 1876.45 195.426  -2
   0   4  26 1876.45 195.426   1
   0   4 -27 1281.43 142.778   1
  30  -4  -2 719.756 186.604  -2
   0   4  28 719.756 186.604   1
   0  -4 -29 2425.18 149.500   1
  32  -4  -2 1399.10 201.256  -2
   0   4  30 1399.10 201.256   1
   0   4 -31 335.551 142.977   1
   0   4 -32 113.612 135.200   1
   0   4  33 411.899 155.026   1
 -36  -4   3 671.336 276.832  -2
   0   4 -33 671.336 276.832   1
   0   4 -34 220.289 102.393   1
 -38   4   3 656.021 245.189  -2
   0  -4 -35 656.021 245.189   1
   0  -4 -36 283.872 164.303   1
   0  -6   0 29554.8 141.041  -2
   0   6   0 29554.8 141.041   1
   0   6   1 13304.9 172.108   1
   2  -6   0 89954.0 474.414  -2
   0   6   2 89954.0 474.414   1
   0   6  -3 11013.0 162.779   1
   4  -6   0 14423.5 192.773  -2
   0   6   4 14423.5 192.773   1
   0   6  -5 1264.56 92.7102   1
   0   6   6 4662.89 230.412   1
  -6  -6   0 4894.36 150.690  -2
   0   6  -6 4894.36 150.690   1
   0   6  -7 4898.24 159.805   1
  -8   6   1 10640.5 312.374  -2
   0  -6  -7 10640.5 312.374   1
   0   6   8 1291.28 97.4460   1
 -10   6   1 9966.89 196.553  -2
   0  -6  -9 9966.89 196.553   1
   0  -6 -10 8528.73 172.340   1
 -12   6   1 3606.66 189.086  -2
   0  -6 -11 3606.66 189.086   1
   0  -6 -12 1376.84 139.506   1
 -14   6   1 8765.84 254.939  -2
   0  -6 -13 8765.84 254.939   1
   0  -6 -14 108.797 130.642   1
 -16   6   1 7610.53 258.092  -2
   0  -6 -15 7610.53 258.092   1
   0  -6 -16 6515.71 206.364   1
 -18   6   1 13018.5 182.280  -2
   0  -6 -17 13018.5 182.280   1
   0  -6 -18 391.909 115.493   1
  20  -6  -1 6630.79 180.127  -2
   0   6  19 6630.79 180.127   1
  22  -6  -2 3748.52 177.271  -2
   0   6  20 3748.52 177.271   1
   0   6  21 2094.36 128.370   1
  24  -6  -2 10425.3 199.906  -2
   0   6  22 10425.3 199.906   1
   0   6  23 40.6146 125.336   1
  26  -6  -2 626.802 188.581  -2
   0   6  24 626.802 188.581   1
   0   6  25 1303.38 150.694   1
  28  -6  -2 1359.21 229.668  -2
   0   6  26 1359.21 229.668   1
   0  -6 -27-7.51633 169.597   1
 -30   6   2 1329.02 223.960  -2
   0  -6 -28 1329.02 223.960   1
   0  -6 -29 820.707 164.579   1
  32  -6  -2 413.939 242.367  -2
   0   6  30 413.939 242.367   1
   0   6  31-16.9629 166.171   1
   0   6  32 49.1941 162.272   1
   0  -6 -33 515.335 118.456   1
   0   6  34 72.4672 104.157   1
   0  -8   0 45251.8 192.704  -2
   0   8   0 45251.8 192.704   1
   0   8  -1 845.800 117.085   1
   2  -8   0 31047.1 366.802  -2
   0   8   2 31047.1 366.802   1
   0   8   3 41345.0 325.688   1
   4  -8   0 52268.7 388.225  -2
   0   8   4 52268.7 388.225   1
   0   8  -5 479.842 124.707   1
   0   8  -6 6870.14 205.718   1
   6  -8   0 6776.18 315.811  -2
   0   8   6 6776.18 315.811   1
  -8  -8   1 8540.04 195.143  -2
   0   8  -7 8540.04 195.143   1
   0   8  -8 11324.4 195.382   1
  10  -8  -1 1984.76 316.455  -2
   0   8   9 1984.76 316.455   1
   0   8  10 103.756 223.497   1
  12  -8  -1 1689.12 332.082  -2
   0   8  11 1689.12 332.082   1
   0   8  12 253.723 248.619   1
  14  -8  -1 21215.1 640.017  -2
   0   8  13 21215.1 640.017   1
   0  -8 -14 36.5666 168.284   1
 -16   8   1 4945.62 288.301  -2
   0  -8 -15 4945.62 288.301   1
   0   8  16 912.320 123.547   1
  18  -8  -1 2755.48 200.559  -2
   0   8  17 2755.48 200.559   1
   0   8  18 117.360 144.439   1
  20  -8  -1 1532.87 203.016  -2
   0   8  19 1532.87 203.016   1
  22  -8  -2 982.979 202.870  -2
   0   8  20 982.979 202.870   1
   0   8  21 221.924 134.272   1
  24  -8  -2 1711.37 275.234  -2
   0   8  22 1711.37 275.234   1
   0   8  23 481.875 210.451   1
  26  -8  -2 905.127 275.677  -2
   0   8  24 905.127 275.677   1
   0  -8 -25 481.015 171.302   1
  28  -8  -2 551.834 223.262  -2
   0   8  26 551.834 223.262   1
   0  -8 -27 152.932 163.945   1
  30  -8  -2 138.559 245.732  -2
   0   8  28 138.559 245.732   1
   0   8  29 109.377 176.764   1
  32  -8  -2 493.238 217.478  -2
   0   8  30 493.238 217.478   1
   0   8  31 57.2645 149.864   1
   0   8  32 109.091 136.767   1
   0   8  33 283.203 116.555   1
   0 -10   0 139373. 362.957  -2
   0  10   0 139373. 362.957   1
   0  10   1 1628.17 119.743   1
   2 -10   0 2609.58 202.216  -2
   0  10   2 2609.58 202.216   1
   0  10  -3 332.837 128.802   1
   4 -10   0 18262.7 319.189  -2
   0  10   4 18262.7 319.189   1
   0  10   5 7713.75 197.474   1
   6 -10   0 40133.9 394.625  -2
   0  10   6 40133.9 394.625   1
   8 -10  -1 13521.5 482.600  -2
   0  10   7 13521.5 482.600   1
   0  10   8 4978.66 318.162   1
  10 -10  -1 1659.44 360.592  -2
   0  10   9 1659.44 360.592   1
   0  10  10 2782.44 306.923   1
  12 -10  -1 4696.82 440.830  -2
   0  10  11 4696.82 440.830   1
   0  10  12 8607.30 408.345   1
  14 -10  -1 14246.0 644.809  -2
   0  10  13 14246.0 644.809   1
   0  10  14 3447.84 369.571   1
  16 -10  -1 27385.7 791.902  -2
   0  10  15 27385.7 791.902   1
   0  10  16 308.668 305.171   1
  22 -10  -2 8766.74 314.604  -2
   0  10  20 8766.74 314.604   1
   0  10  21 69.8888 201.208   1
  24 -10  -2 271.447 213.740  -2
   0  10  22 271.447 213.740   1
   0  10  23 166.890 163.189   1
  26 -10  -2 1052.81 211.147  -2
   0  10  24 1052.81 211.147   1
   0  10  25 2673.52 175.248   1
  28 -10  -2 1189.95 237.525  -2
   0  10  26 1189.95 237.525   1
   0  10  27 103.425 164.351   1
  30 -10  -2 452.455 199.852  -2
   0  10  28 452.455 199.852   1
   0  10  29 967.144 145.896   1
  32 -10  -2 756.090 167.130  -2
   0  10  30 756.090 167.130   1
   0 -12   0 777.883 314.607  -2
   0  12   0 777.883 314.607   1
   0  12  -1 2688.90 190.966   1
  -2 -12   0 2299.03 245.986  -2
   0  12  -2 2299.03 245.986   1
   0  12   3 11754.5 402.229   1
   4 -12   0 2374.19 361.307  -2
   0  12   4 2374.19 361.307   1
   0  12   5 1211.53 227.307   1
   6 -12   0 8535.83 330.818  -2
   0  12   6 8535.83 330.818   1
   8 -12  -1 1334.62 347.278  -2
   0  12   7 1334.62 347.278   1
   0  12   8 164.277 264.208   1
  10 -12  -1 361.361 352.253  -2
   0  12   9 361.361 352.253   1
   0  12  18 185.600 203.166   1
  20 -12  -1 2603.07 269.251  -2
   0  12  19 2603.07 269.251   1
  22 -12  -2 2357.72 253.520  -2
   0  12  20 2357.72 253.520   1
   0  12  21 556.372 190.428   1
  24 -12  -2 3259.26 243.076  -2
   0  12  22 3259.26 243.076   1
   0  12  23 2960.05 180.986   1
  26 -12  -2 273.858 197.321  -2
   0  12  24 273.858 197.321   1
   0  12  25 1066.58 148.933   1
  28 -12  -2 1517.24 184.080  -2
   0  12  26 1517.24 184.080   1
   0  12  27 211.176 112.738   1
  16 -14  -1 985.309 234.147  -2
   0  14  15 985.309 234.147   1
   0  14  16 1874.23 183.733   1
  18 -14  -1-40.4041 204.265  -2
   0  14  17-40.4041 204.265   1
   0  14  18 48.5540 157.291   1
  20 -14  -1 736.298 189.667  -2
   0  14  19 736.298 189.667   1
  22 -14  -2 2011.78 189.684  -2
   0  14  20 2011.78 189.684   1
   0  14  21 19.9097 130.875   1
  24 -14  -2 925.329 153.715  -2
   0  14  22 925.329 153.715   1
   1  -1 -37-50.8588 162.911   1
 -39   1   4 0.92430 97.1346  -2
   1  -1 -36 0.92430 97.1346   1
   1  -1 -35 80.9003 153.080   1
   1  -1 -34 165.414 260.837   1
 -37  -1   4 482.278 315.021  -2
   1   1 -34 482.278 315.021   1
   1   1 -33 449.201 258.669   1
   1   1 -32-21.0642 142.514   1
  33  -1  -3 2781.77 237.899  -2
  -1   1  31 2781.77 237.899   1
  -1   1  30 685.486 191.750   1
  31  -1  -3 3479.94 272.656  -2
  -1   1  29 3479.94 272.656   1
  -1   1  28 5418.43 228.177   1
  29  -1  -3 333.406 200.101  -2
  -1   1  27 333.406 200.101   1
  -1  -1  26 6903.12 126.656   1
  27   1  -3 10248.4 161.560  -2
  -1  -1  25 10248.4 161.560   1
  -1  -1  24 47.8198 76.5561   1
  25  -1  -3 4481.95 106.609  -2
  -1   1  23 4481.95 106.609   1
  -1   1  22 977.844 79.4225   1
  -1   1  21 272.752 147.609   1
  23  -1  -3 1217.37 124.190  -2
  -1   1  21 1217.37 124.190   1
 -21   1   2 3385.83 196.963  -2
   1  -1 -20 3385.83 196.963   1
  -1  -1  19 128.573 137.390   1
  19   1  -2 2904.52 168.629  -2
  -1  -1  18 2904.52 168.629   1
   1  -1 -17 801.255 122.631   1
 -17   1   2 2870.38 167.316  -2
   1  -1 -16 2870.38 167.316   1
  -1   1  15 93.1961 112.392   1
 -15  -1   2 10934.0 203.975  -2
   1   1 -14 10934.0 203.975   1
  -1  -1  13 526.207 105.917   1
 -13   1   2 1238.09 127.143  -2
   1  -1 -12 1238.09 127.143   1
   1   1 -11 812.320 48.2983   1
 -11   1   2 14064.7 102.813  -2
   1  -1 -10 14064.7 102.813   1
   1  -1  -9 4938.30 69.4097   1
   1   1  -8 540.446 60.5460   1
   9  -1  -2 3344.70 206.832  -2
  -1   1   8 3344.70 206.832   1
   1  -1  -7 318.472 85.4696   1
   1   1  -6 38291.2 178.781   1
   1   1  -5 44113.9 170.133   1
   1   1  -4 48598.4 156.066   1
   1  -1  -3 71004.1 181.625   1
  -1   1   2 87.1309 25.2236   1
   1  -1  -1 146266. 206.105  -2
  -1   1   1 146266. 206.105   1
   1   1   0 1645.22 31.4836   1
  -1   1  -1 1445.05 18.4593   1
  -1   1  -2 10549.4 41.2785   1
  -1   1  -3 7584.56 58.9790   1
  -1   1  -4 4447.52 86.3962   1
  -1   1  -5 14403.8 212.408   1
  -1   1  -6 557.364 55.0759   1
   1   1   7 10547.5 91.0922   1
  -1   1  -8 25971.4 175.084   1
  -9  -1   0 32380.1 179.039  -2
  -1   1  -8 32380.1 179.039   1
  -1   1  -9 787.554 85.1361   1
  11   1   0 833.896 105.525  -2
   1  -1  10 833.896 105.525   1
   1   1  11 51906.2 220.914   1
  13  -1   0 359.526 118.487  -2
   1   1  12 359.526 118.487   1
  -1  -1 -13 1050.55 102.200   1
  15  -1   0 1255.87 136.387  -2
   1   1  14 1255.87 136.387   1
   1   1  15 17895.2 179.809   1
 -17  -1   0 791.486 141.476  -2
  -1   1 -16 791.486 141.476   1
   1  -1  17 3013.08 125.190   1
  -1  -1 -18 268.728 261.594   1
 -19  -1   0 471.950 157.883  -2
  -1   1 -18 471.950 157.883   1
  -1  -1 -19 3020.34 243.838   1
  21   1  -1 3393.18 198.096  -2
   1  -1  19 3393.18 198.096   1
   1  -1  20 111.472 105.523   1
  23  -1  -1 6214.68 106.523  -2
   1   1  21 6214.68 106.523   1
  -1  -1 -22-35.9457 72.2316   1
  25   1  -1 4697.55 119.096  -2
   1  -1  23 4697.55 119.096   1
   1  -1  24 3281.98 93.3021   1
  27  -1  -1 466.112 71.1627  -2
   1   1  25 466.112 71.1627   1
   1   1  26 3675.02 114.831   1
  29  -1  -1 1304.27 140.590  -2
   1   1  27 1304.27 140.590   1
   1   1  28 2802.46 133.557   1
  31  -1  -1 5341.49 202.231  -2
   1   1  29 5341.49 202.231   1
   1   1  30 416.744 142.273   1
   1   1  31-37.1786 190.068   1
   1   1  32 1312.89 175.083   1
  -1   1 -33 29.7581 137.006   1
 -37  -1   2 1362.56 217.584  -2
  -1   1 -34 1362.56 217.584   1
  -1   1 -35 20.6364 143.960   1
 -39   1   2 234.169 163.226  -2
  -1  -1 -36 234.169 163.226   1
 -39   3   4 213.436 229.837  -2
   1  -3 -36 213.436 229.837   1
   1  -3 -35 151.971 144.992   1
  -1   3  34 44.7179 118.029   1
 -37  -3   4-4.25399 278.120  -2
   1   3 -34-4.25399 278.120   1
   1   3 -33-118.048 126.316   1
   1   3 -32 1298.88 142.668   1
 -33  -3   3 280.619 194.626  -2
   1   3 -31 280.619 194.626   1
   1   3 -30 288.832 148.369   1
 -31  -3   3 1253.49 204.449  -2
   1   3 -29 1253.49 204.449   1
  -1   3  28 466.231 160.029   1
  29  -3  -3 2325.88 219.131  -2
  -1   3  27 2325.88 219.131   1
   1  -3 -26 1756.81 130.812   1
  27  -3  -3 4363.17 195.180  -2
  -1   3  25 4363.17 195.180   1
  -1   3  24 336.233 130.412   1
  25  -3  -3 2256.63 171.377  -2
  -1   3  23 2256.63 171.377   1
  -1   3  22 1064.30 105.624   1
   1  -3 -21 187.529 323.667   1
  23   3  -3 1624.65 121.505  -2
  -1  -3  21 1624.65 121.505   1
   1  -3 -20-7.46373 132.701   1
  21   3  -2 6737.70 160.729  -2
  -1  -3  20 6737.70 160.729   1
  -1  -3  19 243.867 94.3019   1
  19   3  -2 2583.18 166.894  -2
  -1  -3  18 2583.18 166.894   1
   1  -3 -17 1125.06 126.186   1
 -17   3   2 2038.66 167.086  -2
   1  -3 -16 2038.66 167.086   1
  -1   3  15 558.752 104.800   1
 -15   3   2 37221.5 343.016  -2
   1  -3 -14 37221.5 343.016   1
   1  -3 -13 713.036 118.196   1
  13  -3  -2 47176.2 411.761  -2
  -1   3  12 47176.2 411.761   1
   1  -3 -11 12732.9 157.293   1
   1  -3 -10 10496.9 239.988   1
  11  -3  -2 13316.7 334.631  -2
  -1   3  10 13316.7 334.631   1
   1  -3  -9 16328.7 152.979   1
   1  -3  -8 1695.82 88.8579   1
  -1   3   7 2370.03 86.9430   1
   1  -3  -6 47868.5 209.828   1
   1   3  -5 1936.25 98.9215   1
  -5   3   1 81491.6 379.793  -2
   1  -3  -5 81491.6 379.793   1
   1   3  -4 46404.9 196.126   1
  -3   3   1 23017.7 151.078  -2
   1  -3  -3 23017.7 151.078   1
   1   3  -2 131961. 312.060   1
  -1  -3   1 41226.5 237.661  -2
   1   3  -1 41226.5 237.661   1
  -1   3   0 78535.5 241.540   1
  -1  -3  -1 904.197 89.5211  -2
  -1   3  -1 904.197 89.5211   1
   1   3   2 13205.2 94.7574   1
  -1   3  -3 110040. 262.118   1
  -1  -3  -4 10798.7 102.325   1
  -1   3  -5 15546.1 105.756   1
  -1  -3  -6 3000.51 71.1940   1
  -1   3  -7 184.358 99.1952   1
  -9   3   0 50457.4 279.694  -2
  -1  -3  -8 50457.4 279.694   1
  -1   3  -9 1484.10 50.2606   1
 -11   3   0 26462.8 294.191  -2
  -1  -3 -10 26462.8 294.191   1
  -1   3 -11 20791.4 196.132   1
 -13   3   0 28596.8 300.549  -2
  -1  -3 -12 28596.8 300.549   1
   1  -3  13 2375.33 106.588   1
  15   3   0 51898.4 318.055  -2
   1  -3  14 51898.4 318.055   1
  -1  -3 -15 32945.4 221.332   1
  17   3   0 2879.52 141.968  -2
   1  -3  16 2879.52 141.968   1
  -1  -3 -17 3100.51 127.219   1
  19   3   0 6593.67 169.535  -2
   1  -3  18 6593.67 169.535   1
  -1  -3 -19 395.549 283.419   1
 -21   3   1 2465.70 109.426  -2
  -1  -3 -19 2465.70 109.426   1
   1   3  20 302.786 88.8574   1
 -23   3   1 1690.50 143.751  -2
  -1  -3 -21 1690.50 143.751   1
  -1  -3 -22 141.546 113.310   1
  25  -3  -1 2790.04 173.940  -2
   1   3  23 2790.04 173.940   1
   1   3  24 23.4809 131.954   1
  27  -3  -1 289.433 177.393  -2
   1   3  25 289.433 177.393   1
   1   3  26 2135.03 146.338   1
  29  -3  -1 866.276 170.777  -2
   1   3  27 866.276 170.777   1
   1   3  28 444.908 167.864   1
  31  -3  -1 1040.86 217.817  -2
   1   3  29 1040.86 217.817   1
  -1   3 -30 4818.75 177.448   1
   1   3  31 198.759 189.626   1
 -33  -3   1 506.477 346.875  -2
  -1   3 -31 506.477 346.875   1
   1   3  32 3269.58 189.149   1
 -35  -3   2 4749.80 333.020  -2
  -1   3 -32 4749.80 333.020   1
   1   3  33-74.9347 131.880   1
   1   3  34 69.0183 138.681   1
 -37  -3   2 8.06104 253.639  -2
  -1   3 -34 8.06104 253.639   1
  -1  -3 -35 62.9882 131.408   1
 -39   3   2 27.8631 87.2328  -2
  -1  -3 -36 27.8631 87.2328   1
   1  -5 -35 107.847 163.057   1
  -1   5  34 48.3569 107.493   1
  -1   5  33-15.0897 149.843   1
   1   5 -32 84.2773 127.273   1
  33  -5  -3 298.235 177.262  -2
  -1   5  31 298.235 177.262   1
   1   5 -30 340.907 144.770   1
  31  -5  -3 4332.74 191.983  -2
  -1   5  29 4332.74 191.983   1
  -1   5  28 41.5138 135.166   1
 -29  -5   3 2023.48 189.996  -2
   1   5 -27 2023.48 189.996   1
  -1   5  26 249.742 139.089   1
  27  -5  -3 3253.60 170.584  -2
  -1   5  25 3253.60 170.584   1
  -1   5  24 43.1508 113.412   1
  25  -5  -3 2716.86 148.801  -2
  -1   5  23 2716.86 148.801   1
   1   5 -22-36.5506 101.186   1
 -23  -5   3 2289.18 132.556  -2
   1   5 -21 2289.18 132.556   1
 -21   5   2 914.151 158.144  -2
   1  -5 -20 914.151 158.144   1
   1  -5 -19 1024.30 119.283   1
 -19   5   2 7960.10 153.164  -2
   1  -5 -18 7960.10 153.164   1
  -1  -5  17 3735.15 144.333   1
 -17   5   2 1108.77 202.579  -2
   1  -5 -16 1108.77 202.579   1
   1  -5 -15 1851.18 156.600   1
 -15   5   2 25021.3 154.593  -2
   1  -5 -14 25021.3 154.593   1
   1  -5 -13 3205.74 155.927   1
 -13   5   2 9176.44 236.827  -2
   1  -5 -12 9176.44 236.827   1
   1  -5 -11 24838.6 247.743   1
 -11   5   2 8228.48 192.729  -2
   1  -5 -10 8228.48 192.729   1
   1  -5  -9 29129.0 238.115   1
   1   5  -8 424.583 96.7722   1
   1  -5  -7 26457.6 183.365   1
  -7   5   1 26070.9 344.910  -2
   1  -5  -7 26070.9 344.910   1
   1  -5  -6 1134.19 97.0808   1
  -5  -5   1 7713.85 147.117  -2
   1   5  -5 7713.85 147.117   1
   1   5  -4 319.751 91.5018   1
  -3  -5   1 43895.3 261.594  -2
   1   5  -3 43895.3 261.594   1
  -1   5   2 29155.3 207.319   1
   1  -5  -1 53990.0 353.849  -2
  -1   5   1 53990.0 353.849   1
  -1   5   0 13270.6 152.997   1
   1  -5   1 44340.3 265.738  -2
   1   5   1 44340.3 265.738   1
   1   5   2 692.577 84.5753   1
   1   5   3 2713.67 98.8602   1
  -1   5  -4 47.6154 69.1615   1
  -1  -5  -5 49020.7 217.463   1
   1   5   6 4150.09 92.1056   1
  -1   5  -7 21141.5 176.003   1
  -9  -5   0 1619.13 120.769  -2
  -1   5  -8 1619.13 120.769   1
  -1  -5  -9 31171.0 376.912   1
 -11   5   0 30489.7 489.845  -2
  -1  -5 -10 30489.7 489.845   1
  -1  -5 -11 27812.4 269.332   1
 -13   5   0 14955.1 290.042  -2
  -1  -5 -12 14955.1 290.042   1
  -1  -5 -13 389.550 132.957   1
 -15   5   0 4738.48 222.466  -2
  -1  -5 -14 4738.48 222.466   1
  -1  -5 -15 4277.71 127.111   1
 -17   5   0 3885.24 217.291  -2
  -1  -5 -16 3885.24 217.291   1
  -1  -5 -17 6813.21 207.154   1
  -1  -5 -18 348.771 260.182   1
 -19   5   0 2822.47 148.325  -2
  -1  -5 -18 2822.47 148.325   1
  -1  -5 -19 1722.26 312.925   1
  21  -5  -1 2657.37 126.148  -2
   1   5  19 2657.37 126.148   1
   1   5  20 329.941 104.332   1
  23  -5  -1 4975.47 160.972  -2
   1   5  21 4975.47 160.972   1
   1   5  22 557.664 116.276   1
  25  -5  -1 2176.48 174.885  -2
   1   5  23 2176.48 174.885   1
   1   5  24 106.125 117.777   1
 -27  -5   1 64.9405 45.5552  -2
  -1   5 -25 64.9405 45.5552   1
   1   5  26 2149.37 133.369   1
 -29   5   1 1382.55 189.530  -2
  -1  -5 -27 1382.55 189.530   1
   1   5  28 1691.33 145.445   1
  31  -5  -1 1227.81 178.633  -2
   1   5  29 1227.81 178.633   1
   1   5  30 279.572 142.148   1
   1   5  31 128.758 174.087   1
   1   5  32 85.0981 168.498   1
   1   5  33 305.260 155.998   1
 -37   5   2 510.085 143.228  -2
  -1  -5 -34 510.085 143.228   1
  -1  -5 -35-64.9660 163.648   1
  -1   7  33 283.256 136.473   1
   1  -7 -32 421.450 116.172   1
  33  -7  -3 326.892 218.474  -2
  -1   7  31 326.892 218.474   1
  -1   7  30 843.352 183.928   1
  31  -7  -3 843.552 244.131  -2
  -1   7  29 843.552 244.131   1
   1  -7 -28 563.423 164.209   1
  29  -7  -3 188.571 220.137  -2
  -1   7  27 188.571 220.137   1
  -1   7  26 2703.19 180.664   1
  27  -7  -3 532.814 220.537  -2
  -1   7  25 532.814 220.537   1
  -1   7  24 106.827 199.431   1
  25  -7  -3 2145.24 271.735  -2
  -1   7  23 2145.24 271.735   1
  -1   7  22 1594.89 130.701   1
  23  -7  -3 1801.26 212.548  -2
  -1   7  21 1801.26 212.548   1
  21  -7  -2 1772.83 176.594  -2
  -1   7  20 1772.83 176.594   1
  -1   7  19 706.271 127.529   1
  19  -7  -2 325.649 157.086  -2
  -1   7  18 325.649 157.086   1
  -1   7  17 1715.02 126.693   1
  17  -7  -2 1304.90 149.823  -2
  -1   7  16 1304.90 149.823   1
   1  -7 -15 1178.07 173.208   1
  15  -7  -2 9959.73 318.722  -2
  -1   7  14 9959.73 318.722   1
   1  -7 -13 301.583 156.596   1
 -13   7   2 5777.55 260.209  -2
   1  -7 -12 5777.55 260.209   1
  -1   7  11 5162.91 196.368   1
  11  -7  -2 31785.2 406.303  -2
  -1   7  10 31785.2 406.303   1
  -1   7   9 4472.32 126.902   1
  -9   7   2 48686.5 285.283  -2
   1  -7  -8 48686.5 285.283   1
   1   7  -7 292.491 129.093   1
  -7   7   1 3501.34 201.148  -2
   1  -7  -7 3501.34 201.148   1
   1   7  -6 4720.89 145.467   1
  -5  -7   1 2055.86 156.570  -2
   1   7  -5 2055.86 156.570   1
   1   7  -4 39719.3 300.287   1
  -3  -7   1 3518.08 177.056  -2
   1   7  -3 3518.08 177.056   1
   1   7  -2 23677.5 237.914   1
   1  -7  -1 9520.68 98.9635  -2
  -1   7   1 9520.68 98.9635   1
  -1   7   0 7250.63 159.441   1
   1  -7   1 43262.7 381.909  -2
   1   7   1 43262.7 381.909   1
  -1   7  -2 160.052 107.196   1
   3  -7   1 26714.1 250.040  -2
   1   7   3 26714.1 250.040   1
   1   7   4 16786.4 207.029   1
  -1   7  -5 5429.35 182.302   1
   5  -7   1 12891.0 341.387  -2
   1   7   5 12891.0 341.387   1
  -7  -7   0 12492.8 198.317  -2
  -1   7  -6 12492.8 198.317   1
   1   7   7 2306.82 123.227   1
   9  -7   0 67033.0 392.788  -2
   1   7   8 67033.0 392.788   1
   1   7   9 4754.74 179.593   1
 -11   7   0 10886.3 290.633  -2
  -1  -7 -10 10886.3 290.633   1
   1   7  11 101.381 147.775   1
  13  -7   0 27301.8 428.372  -2
   1   7  12 27301.8 428.372   1
   1   7  13 2011.00 177.936   1
 -15   7   0 19218.1 385.416  -2
  -1  -7 -14 19218.1 385.416   1
  -1  -7 -15 1854.34 116.200   1
 -17   7   0 5020.01 167.472  -2
  -1  -7 -16 5020.01 167.472   1
  -1  -7 -17 4185.63 135.273   1
  19  -7   0 1255.23 160.611  -2
   1   7  18 1255.23 160.611   1
  21  -7  -1 3352.42 178.072  -2
   1   7  19 3352.42 178.072   1
   1   7  20 329.217 120.668   1
  23  -7  -1 3729.35 175.724  -2
   1   7  21 3729.35 175.724   1
   1   7  22 305.730 129.762   1
  25  -7  -1 344.564 184.886  -2
   1   7  23 344.564 184.886   1
   1   7  24 1043.66 144.937   1
  27  -7  -1 636.554 275.249  -2
   1   7  25 636.554 275.249   1
  -1  -7 -26 722.447 172.644   1
 -29   7   1 3100.22 241.501  -2
  -1  -7 -27 3100.22 241.501   1
   1   7  28 11.5166 162.307   1
  31  -7  -1 572.722 212.466  -2
   1   7  29 572.722 212.466   1
   1   7  30 1383.35 190.934   1
   1   7  31 90.2753 165.388   1
   1   7  32 872.367 161.915   1
  -1  -7 -33 65.7011 97.7869   1
  -1   9  32 161.881 115.947   1
  33  -9  -3 1264.06 179.783  -2
  -1   9  31 1264.06 179.783   1
  -1   9  30 126.031 148.808   1
  31  -9  -3 1286.03 211.971  -2
  -1   9  29 1286.03 211.971   1
  -1   9  28 70.1849 172.932   1
  29  -9  -3 605.066 244.474  -2
  -1   9  27 605.066 244.474   1
  -1   9  26 44.3494 161.040   1
  27  -9  -3 1282.98 215.067  -2
  -1   9  25 1282.98 215.067   1
   1  -9 -24 294.608 174.290   1
 -25   9   3 5848.38 243.453  -2
   1  -9 -23 5848.38 243.453   1
  -1   9  22 252.114 203.272   1
  23  -9  -3 2092.29 276.325  -2
  -1   9  21 2092.29 276.325   1
  -1   9  19-14.1628 306.745   1
  19  -9  -2 4208.37 470.951  -2
  -1   9  18 4208.37 470.951   1
  -1   9  17 153.335 312.465   1
  17  -9  -2 7027.49 523.619  -2
  -1   9  16 7027.49 523.619   1
  -1   9  15 6801.59 397.296   1
  15  -9  -2 19572.5 685.415  -2
  -1   9  14 19572.5 685.415   1
  -1   9  13 10423.6 417.819   1
  13  -9  -2 5128.55 435.219  -2
  -1   9  12 5128.55 435.219   1
  -1   9  11 14162.2 448.253   1
  11  -9  -2 1987.68 353.972  -2
  -1   9  10 1987.68 353.972   1
  -1   9   9 1002.61 270.684   1
   9  -9  -2 5485.83 195.932  -2
  -1   9   8 5485.83 195.932   1
   7  -9  -1 22229.2 282.262  -2
  -1   9   7 22229.2 282.262   1
   1   9  -6 799.044 122.218   1
   5  -9  -1 4993.13 191.243  -2
  -1   9   5 4993.13 191.243   1
  -1   9   4 945.546 127.275   1
   3  -9  -1 6258.44 227.647  -2
  -1   9   3 6258.44 227.647   1
  -1   9   2 7000.65 182.480   1
  -1  -9   1 6920.63 60.1105  -2
   1   9  -1 6920.63 60.1105   1
   1   9   0 8917.78 155.091   1
  -1  -9  -1 4871.31 204.053  -2
  -1   9  -1 4871.31 204.053   1
  -1   9  -2 11531.5 207.903   1
   3  -9   1 998.877 162.951  -2
   1   9   3 998.877 162.951   1
  -1   9  -4 15275.4 231.290   1
  -5  -9  -1 26282.8 298.550  -2
  -1   9  -5 26282.8 298.550   1
  -7  -9   0 343.068 146.729  -2
  -1   9  -6 343.068 146.729   1
   1   9   7 241.838 221.528   1
   9  -9   0 7032.39 423.040  -2
   1   9   8 7032.39 423.040   1
   1   9   9 26809.0 529.384   1
  11  -9   0 1913.67 377.784  -2
   1   9  10 1913.67 377.784   1
   1   9  11 23083.5 510.769   1
  13  -9   0 1828.27 378.884  -2
   1   9  12 1828.27 378.884   1
   1   9  13 7609.50 391.987   1
  15  -9   0 1894.58 406.568  -2
   1   9  14 1894.58 406.568   1
   1   9  15 2680.72 330.653   1
  17  -9   0 2245.99 409.375  -2
   1   9  16 2245.99 409.375   1
   1   9  17 165.283 312.431   1
  19  -9   0 6476.33 456.056  -2
   1   9  18 6476.33 456.056   1
   1   9  20 328.109 209.342   1
  23  -9  -1 2668.36 286.052  -2
   1   9  21 2668.36 286.052   1
   1   9  22 1847.53 216.868   1
  25  -9  -1 2540.71 283.237  -2
   1   9  23 2540.71 283.237   1
   1   9  24 44.3735 167.362   1
 -27   9   1 437.340 215.237  -2
  -1  -9 -25 437.340 215.237   1
  -1  -9 -26 1122.89 161.868   1
  29  -9  -1 1822.68 214.563  -2
   1   9  27 1822.68 214.563   1
   1   9  28 116.320 164.786   1
  31  -9  -1 1462.01 218.924  -2
   1   9  29 1462.01 218.924   1
   1   9  30 173.824 143.061   1
   1   9  31 57.9223 129.437   1
   1   9  32 217.645 112.244   1
  31 -11  -3 1218.51 153.679  -2
  -1  11  29 1218.51 153.679   1
  -1  11  28 349.795 127.461   1
  29 -11  -3 749.558 191.797  -2
  -1  11  27 749.558 191.797   1
  -1  11  26 623.481 157.702   1
  27 -11  -3 567.818 218.047  -2
  -1  11  25 567.818 218.047   1
  -1  11  24 153.290 173.553   1
  25 -11  -3 1299.29 240.301  -2
  -1  11  23 1299.29 240.301   1
  -1  11  22 431.706 190.465   1
  23 -11  -3 1164.95 254.321  -2
  -1  11  21 1164.95 254.321   1
  -1  11  20 166.175 206.739   1
 -21  11   2 1480.34 366.156  -2
   1 -11 -20 1480.34 366.156   1
   1 -11 -19 3856.26 314.512   1
 -19  11   2 5757.95 406.661  -2
   1 -11 -18 5757.95 406.661   1
   1 -11 -17 455.605 269.639   1
  -1  11  13 1382.67 313.778   1
  13 -11  -2 5680.91 494.167  -2
  -1  11  12 5680.91 494.167   1
  -1  11  11 3139.27 346.443   1
  11 -11  -2 5354.09 472.506  -2
  -1  11  10 5354.09 472.506   1
  -1  11   9 941.364 286.364   1
   9 -11  -2 15388.5 513.110  -2
  -1  11   8 15388.5 513.110   1
   7 -11  -1 1758.10 343.135  -2
  -1  11   7 1758.10 343.135   1
  -1  11   6 699.247 256.406   1
  -5 -11   1 4700.36 227.644  -2
   1  11  -5 4700.36 227.644   1
  -1  11   4 10182.4 229.551   1
  -3 -11   1 27852.7 439.816  -2
   1  11  -3 27852.7 439.816   1
   1  11  -2 4872.65 158.742   1
  -1 -11   1 273.098 192.962  -2
   1  11  -1 273.098 192.962   1
  -1  11   0 3306.10 181.863   1
   1 -11   1 53108.5 595.563  -2
   1  11   1 53108.5 595.563   1
   1  11   2 103.868 120.669   1
   3 -11   1 13810.7 271.143  -2
   1  11   3 13810.7 271.143   1
   1  11   4 4156.42 208.664   1
   5 -11   1 201.981 295.660  -2
   1  11   5 201.981 295.660   1
   7 -11   0 3272.71 360.253  -2
   1  11   6 3272.71 360.253   1
   1  11   7 675.820 255.624   1
   9 -11   0 9759.46 491.213  -2
   1  11   8 9759.46 491.213   1
   1  11   9 2056.42 288.216   1
  11 -11   0 6463.18 481.757  -2
   1  11  10 6463.18 481.757   1
   1  11  11 1367.68 308.249   1
  13 -11   0 3019.56 138.028  -2
   1  11  12 3019.56 138.028   1
   1  11  13 20607.2 547.574   1
  21 -11  -1 2097.33 273.323  -2
   1  11  19 2097.33 273.323   1
   1  11  20 304.626 165.262   1
  23 -11  -1 3764.06 221.340  -2
   1  11  21 3764.06 221.340   1
  -1 -11 -22 86.0747 154.667   1
 -25  11   1 526.637 196.180  -2
  -1 -11 -23 526.637 196.180   1
   1  11  24 450.628 177.716   1
  27 -11  -1 969.034 223.070  -2
   1  11  25 969.034 223.070   1
   1  11  26 113.662 154.911   1
  29 -11  -1 843.235 187.502  -2
   1  11  27 843.235 187.502   1
   1  11  28 75.6017 127.520   1
  31 -11  -1 205.376 144.075  -2
   1  11  29 205.376 144.075   1
  27 -13  -3 603.099 150.601  -2
  -1  13  25 603.099 150.601   1
  -1  13  24 520.953 133.547   1
  25 -13  -3 811.839 184.155  -2
  -1  13  23 811.839 184.155   1
  -1  13  22 239.618 150.041   1
  23 -13  -3 796.957 209.957  -2
  -1  13  21 796.957 209.957   1
  21 -13  -2 1625.01 236.363  -2
  -1  13  20 1625.01 236.363   1
  -1  13  19-15.1716 176.829   1
  19 -13  -2 5551.08 277.879  -2
  -1  13  18 5551.08 277.879   1
  17 -13   0 806.433 251.718  -2
   1  13  16 806.433 251.718   1
   1  13  17 526.487 194.473   1
  19 -13   0 2201.18 254.758  -2
   1  13  18 2201.18 254.758   1
  21 -13  -1 1085.86 229.070  -2
   1  13  19 1085.86 229.070   1
   1  13  20 1561.27 181.373   1
  23 -13  -1 676.534 211.188  -2
   1  13  21 676.534 211.188   1
   1  13  22 1946.65 159.315   1
  25 -13  -1 412.001 179.414  -2
   1  13  23 412.001 179.414   1
   1  13  24-3.83638 126.521   1
  27 -13  -1 390.635 147.606  -2
   1  13  25 390.635 147.606   1
  19 -15  -2 456.992 163.422  -2
  -1  15  18 456.992 163.422   1
  -1  15  17 1142.25 137.288   1
  17 -15  -2 120.917 175.722  -2
  -1  15  16 120.917 175.722   1
  -1  15  15 1345.03 154.003   1
  15 -15  -2 647.341 201.450  -2
  -1  15  14 647.341 201.450   1
  -1  15  13 2779.08 169.841   1
   2   0 -36 180.206 200.089   1
   2   0 -34 710.304 245.243   1
  30   0  -4 2319.31 254.469  -2
  -2   0  28 2319.31 254.469   1
  28   0  -4 2630.34 241.708  -2
  -2   0  26 2630.34 241.708   1
  26   0  -4 3059.19 163.829  -2
  -2   0  24 3059.19 163.829   1
  -2   0  22 487.491 188.592   1
  24   0  -4 3266.78 157.546  -2
  -2   0  22 3266.78 157.546   1
  -2   0  20 2982.98 266.500   1
   2   0 -18 33896.8 380.954   1
  -2   0  16 740.388 176.156   1
   2   0 -14 5270.04 201.688   1
  -2   0  12 1010.84 140.969   1
   2   0 -10 61460.2 186.928   1
   2   0  -8 2711.24 199.556   1
  -8   0   2 98532.3 248.118  -2
   2   0  -8 98532.3 248.118   1
   2   0  -6 5041.82 194.781   1
  -6   0   2 29470.7 180.142  -2
   2   0  -6 29470.7 180.142   1
  -4   0   2 23439.1 144.684  -2
   2   0  -4 23439.1 144.684   1
  -2   0   2 999999. 1154.38  -2
   2   0  -2 999999. 1154.38   1
   0   0   2 3194.17 87.3319  -2
   2   0   0 3194.17 87.3319   1
   2   0   2 78230.3 174.926   1
   2   0   2 152582. 256.802  -2
   2   0   2 152582. 256.802   1
   2   0   4 395447. 419.396   1
   2   0   6 22062.2 140.805   1
  -2   0  -8 10629.4 120.131   1
  -2   0 -10 9497.12 155.511   1
   2   0  12 6744.09 168.436   1
   2   0  14 5905.94 176.216   1
  -2   0 -16 3792.74 172.267   1
  -2   0 -18 4897.54 345.773   1
  20   0   0 54590.8 548.475  -2
   2   0  18 54590.8 548.475   1
 -22   0   0 11877.9 227.745  -2
  -2   0 -20 11877.9 227.745   1
 -24   0   0 8770.92 184.956  -2
  -2   0 -22 8770.92 184.956   1
  26   0   0 4029.27 193.317  -2
   2   0  24 4029.27 193.317   1
  28   0   0 5312.61 185.795  -2
   2   0  26 5312.61 185.795   1
  30   0   0 1000.90 273.031  -2
   2   0  28 1000.90 273.031   1
   2   0  30 58.5017 187.920   1
   2   0  32 2272.29 197.376   1
  -2   0 -34 1321.02 237.885   1
  -2   0 -36 256.503 166.408   1
   2  -2 -36 22.5918 135.981   1
   2  -2 -35 740.052 162.307   1
   2  -2 -34 112.965 171.964   1
   2   2 -33 461.470 131.087   1
  -2   2  32 1237.18 174.415   1
 -34  -2   4 2537.49 369.690  -2
   2   2 -32 2537.49 369.690   1
  -2   2  31-46.6677 134.917   1
 -32  -2   4 736.016 200.951  -2
   2   2 -30 736.016 200.951   1
  -2   2  29 820.370 190.645   1
  30  -2  -4 1725.04 256.038  -2
  -2   2  28 1725.04 256.038   1
   2  -2 -27 94.4963 153.131   1
 -28   2   4 1124.31 197.976  -2
   2  -2 -26 1124.31 197.976   1
   2  -2 -25 845.466 115.230   1
  26   2  -4 1157.20 135.537  -2
  -2  -2  24 1157.20 135.537   1
  -2  -2  23 317.050 108.166   1
  -2   2  22 100.161 125.085   1
  24  -2  -4 3931.36 202.453  -2
  -2   2  22 3931.36 202.453   1
  -2   2  21 6057.22 181.208   1
  22  -2  -3 9186.31 188.673  -2
  -2   2  21 9186.31 188.673   1
  -2   2  20 663.847 110.953   1
  20   2  -3 13322.6 249.981  -2
  -2  -2  19 13322.6 249.981   1
   2  -2 -18 184.416 133.758   1
  18   2  -3 17178.7 280.490  -2
  -2  -2  17 17178.7 280.490   1
  -2   2  16 150.810 132.987   1
  16   2  -3 60591.6 223.221  -2
  -2  -2  15 60591.6 223.221   1
  -2  -2  14 281.091 125.326   1
  14  -2  -3 16135.0 162.355  -2
  -2   2  13 16135.0 162.355   1
  -2   2  12 456.806 76.0658   1
 -12  -2   3 58857.2 227.715  -2
   2   2 -11 58857.2 227.715   1
  -2   2  10 16135.2 197.253   1
   2  -2  -9 1518.15 173.881   1
  10  -2  -3 2484.52 229.858  -2
  -2   2   9 2484.52 229.858   1
  -2   2   8 78.8685 105.775   1
   2  -2  -7 3559.53 116.000   1
   2  -2  -6 475.802 118.924   1
   6  -2  -2 5814.27 202.364  -2
  -2   2   6 5814.27 202.364   1
   2  -2  -5 2117.58 91.1923   1
   4  -2  -2 59040.1 163.931  -2
  -2   2   4 59040.1 163.931   1
  -2   2   3 1445.84 45.3095   1
  -2  -2   2 8364.44 44.2341  -2
   2   2  -2 8364.44 44.2341   1
   2  -2  -1 3607.77 66.0799   1
   2   2   0 23056.8 117.108   1
  -2   2  -1 299311. 350.666   1
  -2  -2  -2 25627.6 79.7023   1
  -2  -2  -3 9269.22 96.4600   1
  -2  -2  -4 8433.87 60.5460   1
  -2  -2  -5 4285.19 96.5280   1
  -2   2  -6 4815.47 103.047   1
  -2  -2  -7 23346.1 173.134   1
  -2   2  -8 19353.3 114.092   1
 -10   2  -1 1972.01 73.1178  -2
  -2  -2  -9 1972.01 73.1178   1
  -2  -2 -10 1761.32 62.5388   1
  12   2   1 5767.92 191.436  -2
   2  -2  11 5767.92 191.436   1
   2  -2  12 1890.24 116.775   1
  14   2   1 18572.4 242.875  -2
   2  -2  13 18572.4 242.875   1
  -2  -2 -14 657.502 93.5931   1
 -16  -2  -1 51401.3 262.377  -2
  -2   2 -15 51401.3 262.377   1
  -2  -2 -16 3133.37 114.465   1
  18   2   1 7691.93 152.748  -2
   2  -2  17 7691.93 152.748   1
  -2  -2 -18 12184.1 298.382   1
  20   2   0 11709.8 206.218  -2
   2  -2  18 11709.8 206.218   1
   2  -2  19 1738.83 110.848   1
 -22   2   0 3872.72 131.060  -2
  -2  -2 -20 3872.72 131.060   1
   2  -2  21 2212.19 83.7172   1
 -24   2   0 301.300 106.004  -2
  -2  -2 -22 301.300 106.004   1
   2  -2  23 7488.96 108.869   1
  26   2   0 586.306 97.8779  -2
   2  -2  24 586.306 97.8779   1
   2   2  25 155.948 90.7720   1
  28  -2   0 842.454 149.119  -2
   2   2  26 842.454 149.119   1
   2   2  27 1587.41 114.564   1
  30   2   0 1086.31 140.392  -2
   2  -2  28 1086.31 140.392   1
  -2  -2 -29 2015.92 134.096   1
   2   2  30 745.698 202.324   1
   2   2  31 149.437 187.507   1
  -2   2 -32 28.8763 142.900   1
 -36  -2   1 739.653 173.372  -2
  -2   2 -33 739.653 173.372   1
  -2   2 -34 67.9980 121.259   1
 -38  -2   1 346.399 176.369  -2
  -2   2 -35 346.399 176.369   1
  -2  -2 -36 10.3041 171.622   1
   2  -4 -36 55.8336 167.254   1
   2   4 -35 259.548 130.606   1
   2   4 -34 225.987 100.518   1
   2   4 -33 111.752 123.544   1
  -2   4  32 1040.20 168.482   1
 -34  -4   4 1158.35 320.207  -2
   2   4 -32 1158.35 320.207   1
   2   4 -31-43.0097 143.853   1
  32  -4  -4 2910.81 204.551  -2
  -2   4  30 2910.81 204.551   1
  -2   4  29 404.856 144.764   1
  30  -4  -4 567.487 65.7626  -2
  -2   4  28 567.487 65.7626   1
   2  -4 -27 122.360 134.332   1
 -28   4   4 2689.99 184.426  -2
   2  -4 -26 2689.99 184.426   1
   2   4 -25 343.212 111.306   1
  26  -4  -4 3604.15 179.417  -2
  -2   4  24 3604.15 179.417   1
  -2   4  23 109.982 126.666   1
  -2   4  22 1210.91 171.812   1
  24  -4  -4 2690.42 199.313  -2
  -2   4  22 2690.42 199.313   1
  -2   4  21 4313.33 185.821   1
  22   4  -3 4358.71 160.977  -2
  -2  -4  21 4358.71 160.977   1
  -2   4  20 408.283 108.352   1
  20   4  -3 4441.32 146.946  -2
  -2  -4  19 4441.32 146.946   1
   2  -4 -18 23598.1 246.913   1
  18   4  -3 11120.5 237.661  -2
  -2  -4  17 11120.5 237.661   1
   2  -4 -16 41629.3 374.703   1
 -16   4   3 1667.20 95.5644  -2
   2  -4 -15 1667.20 95.5644   1
   2  -4 -14 686.531 149.200   1
 -14   4   3 549.454 187.458  -2
   2  -4 -13 549.454 187.458   1
   2  -4 -12 19810.9 238.910   1
 -12   4   3 5922.98 191.506  -2
   2  -4 -11 5922.98 191.506   1
   2  -4 -10 25509.7 230.450   1
   2  -4  -9 3746.50 126.465   1
   2  -4  -8 358.176 129.653   1
  -8   4   2 14838.4 260.314  -2
   2  -4  -8 14838.4 260.314   1
   2  -4  -7 2950.05 78.8519   1
   2  -4  -6 5310.49 127.343   1
  -6  -4   2 6088.44 126.207  -2
   2   4  -6 6088.44 126.207   1
   2  -4  -5 545.715 59.2005   1
  -4   4   2 27952.4 137.823  -2
   2  -4  -4 27952.4 137.823   1
   2   4  -3 18869.4 84.0210   1
  -2   4   2 484.721 108.783  -2
   2  -4  -2 484.721 108.783   1
   2  -4  -1 20967.3 164.444   1
   0  -4  -2 8335.57 138.117  -2
  -2   4   0 8335.57 138.117   1
   2   4   1 46197.1 218.875   1
  -2   4  -2 6883.34 106.504   1
  -2   4  -3 22466.5 153.660   1
   2   4   4 5064.01 121.231   1
  -2   4  -5 16512.3 117.997   1
   2   4   6 13947.2 110.911   1
  -8   4  -1 2039.60 95.0154  -2
  -2  -4  -7 2039.60 95.0154   1
  -2  -4  -8 4100.41 172.641   1
 -10  -4  -1 18519.4 282.909  -2
  -2   4  -9 18519.4 282.909   1
  -2  -4 -10 1357.54 140.691   1
 -12  -4  -1 29304.9 366.537  -2
  -2   4 -11 29304.9 366.537   1
  -2   4 -12 27867.2 287.887   1
 -14   4  -1 11153.1 187.547  -2
  -2  -4 -13 11153.1 187.547   1
  -2  -4 -14 7837.26 136.161   1
 -16   4  -1 1931.64 131.573  -2
  -2  -4 -15 1931.64 131.573   1
   2  -4  16 2810.63 120.752   1
 -18   4  -1 5215.58 205.827  -2
  -2  -4 -17 5215.58 205.827   1
  -2  -4 -18 35594.6 596.848   1
 -20   4   0 32485.4 190.104  -2
  -2  -4 -18 32485.4 190.104   1
   2   4  19 373.474 93.5174   1
  22  -4   0 22817.1 197.437  -2
   2   4  20 22817.1 197.437   1
  -2  -4 -21 241.549 101.512   1
  24  -4   0 6338.93 170.459  -2
   2   4  22 6338.93 170.459   1
   2   4  23 1235.58 131.464   1
  26  -4   0 1960.81 191.261  -2
   2   4  24 1960.81 191.261   1
   2   4  25 800.609 142.048   1
  28  -4   0 2948.53 207.980  -2
   2   4  26 2948.53 207.980   1
   2   4  27 1311.51 156.087   1
 -30   4   0 363.124 151.858  -2
  -2  -4 -28 363.124 151.858   1
  -2   4 -29 1045.22 139.129   1
   2   4  30 72.8049 185.980   1
 -32   4   0 208.459 243.693  -2
  -2  -4 -30 208.459 243.693   1
   2   4  31-62.6077 180.082   1
 -34  -4   1-20.4494 290.210  -2
  -2   4 -31-20.4494 290.210   1
  -2   4 -32 69.0894 133.393   1
  36  -4  -1 690.156 161.802  -2
   2   4  33 690.156 161.802   1
   2   4  34 416.269 150.753   1
 -38   4   1 221.815 239.481  -2
  -2  -4 -35 221.815 239.481   1
   2  -6 -34-7.71473 99.1094   1
   2  -6 -33 167.576 115.271   1
  34  -6  -4 116.150 203.400  -2
  -2   6  32 116.150 203.400   1
  -2   6  31 6.77590 170.441   1
  32  -6  -4 270.059 233.483  -2
  -2   6  30 270.059 233.483   1
   2   6 -29 473.929 147.565   1
 -30  -6   4 1847.38 188.810  -2
   2   6 -28 1847.38 188.810   1
   2   6 -27 54.6072 137.224   1
 -28   6   4 101.944 89.6303  -2
   2  -6 -26 101.944 89.6303   1
   2  -6 -25 104.017 134.316   1
  26  -6  -4 2771.44 203.808  -2
  -2   6  24 2771.44 203.808   1
  -2   6  23 79.4818 108.043   1
  24  -6  -4 2508.33 137.648  -2
  -2   6  22 2508.33 137.648   1
 -22   6   3 1980.37 175.056  -2
   2  -6 -21 1980.37 175.056   1
  -2   6  20 422.619 143.576   1
 -20   6   3 984.948 185.712  -2
   2  -6 -19 984.948 185.712   1
   2  -6 -18 15000.7 205.562   1
  18  -6  -3 5042.19 193.275  -2
  -2   6  17 5042.19 193.275   1
   2  -6 -16 2319.34 245.316   1
 -16   6   3 25544.2 587.978  -2
   2  -6 -15 25544.2 587.978   1
   2  -6 -14 797.412 220.336   1
 -14   6   3 3392.32 313.252  -2
   2  -6 -13 3392.32 313.252   1
   2  -6 -12 21613.7 247.901   1
 -12   6   3 6253.43 321.850  -2
   2  -6 -11 6253.43 321.850   1
   2  -6 -10 8234.97 165.159   1
   2  -6  -9 169.561 91.2668   1
 -10   6   3 3030.01 290.848  -2
   2  -6  -9 3030.01 290.848   1
  -8  -6   2 1909.51 147.901  -2
   2   6  -8 1909.51 147.901   1
   2  -6  -7 3155.77 127.635   1
  -6  -6   2 35681.8 285.960  -2
   2   6  -6 35681.8 285.960   1
   2   6  -5 3226.73 129.441   1
   4  -6  -2 106785. 435.878  -2
  -2   6   4 106785. 435.878   1
   2   6  -3 2762.68 106.342   1
   2  -6  -2 1766.40 121.610  -2
  -2   6   2 1766.40 121.610   1
   2   6  -1 55901.8 307.790   1
   0  -6  -2 74754.1 440.239  -2
  -2   6   0 74754.1 440.239   1
   2   6   1 12392.6 166.440   1
   2  -6   2 31481.5 237.487  -2
   2   6   2 31481.5 237.487   1
  -2   6  -3 1528.49 101.330   1
   2   6   4 46936.8 280.703   1
  -2   6  -5 5487.25 165.082   1
   6  -6   1 45321.9 469.408  -2
   2   6   5 45321.9 469.408   1
  -2   6  -6 6917.30 140.894   1
   8  -6   1 62202.4 290.585  -2
   2   6   7 62202.4 290.585   1
  -2   6  -8 2745.03 97.5483   1
  10  -6   1 6927.45 237.123  -2
   2   6   9 6927.45 237.123   1
   2   6  10 7026.23 189.459   1
  12  -6   1 2039.32 208.828  -2
   2   6  11 2039.32 208.828   1
   2   6  12 23583.4 228.943   1
  14  -6   1 1541.73 164.056  -2
   2   6  13 1541.73 164.056   1
  -2  -6 -14 2234.44 130.613   1
  16  -6   1 10261.1 218.485  -2
   2   6  15 10261.1 218.485   1
   2   6  16 336.329 97.5297   1
 -18   6  -1 1075.98 128.033  -2
  -2  -6 -17 1075.98 128.033   1
  -2  -6 -18 4132.83 327.062   1
  20  -6   0 7128.09 172.398  -2
   2   6  18 7128.09 172.398   1
   2   6  19 835.429 107.847   1
  22  -6   0 6270.19 178.031  -2
   2   6  20 6270.19 178.031   1
   2   6  21 2553.56 132.266   1
  24  -6   0 1271.41 171.239  -2
   2   6  22 1271.41 171.239   1
   2   6  23 1022.00 150.816   1
  26  -6   0 697.609 196.886  -2
   2   6  24 697.609 196.886   1
   2   6  25-0.19988 149.434   1
  28  -6   0 1744.90 204.111  -2
   2   6  26 1744.90 204.111   1
   2   6  27 140.141 206.603   1
  30  -6   0 416.005 219.937  -2
   2   6  28 416.005 219.937   1
   2   6  29 149.713 162.425   1
   2   6  30 738.322 186.819   1
   2   6  31 18.4142 178.297   1
   2   6  32 141.469 161.442   1
  36  -6  -1 306.008 184.208  -2
   2   6  33 306.008 184.208   1
  -2  -6 -34 39.0474 96.7485   1
  -2   8  33-42.3190 114.321   1
  -2   8  32 905.785 143.750   1
  -2   8  31 36.3627 145.448   1
  32  -8  -4 629.634 213.502  -2
  -2   8  30 629.634 213.502   1
  -2   8  29 10.5582 167.794   1
  30  -8  -4 542.224 242.130  -2
  -2   8  28 542.224 242.130   1
  -2   8  27 73.8193 186.298   1
 -28   8   4 439.207 215.072  -2
   2  -8 -26 439.207 215.072   1
   2  -8 -25 489.997 170.927   1
 -26   8   4 961.287 225.333  -2
   2  -8 -24 961.287 225.333   1
   2  -8 -23 46.7515 169.895   1
  24  -8  -4 1558.62 272.307  -2
  -2   8  22 1558.62 272.307   1
  22  -8  -3 6401.38 476.879  -2
  -2   8  21 6401.38 476.879   1
  -2   8  20 64.8997 204.506   1
  20  -8  -3 3001.03 293.757  -2
  -2   8  19 3001.03 293.757   1
  -2   8  18 1056.57 208.160   1
 -18   8   3 7179.91 210.571  -2
   2  -8 -17 7179.91 210.571   1
  -2   8  16 1870.94 210.490   1
 -16   8   3 20704.2 452.604  -2
   2  -8 -15 20704.2 452.604   1
   2  -8 -14 7571.53 249.850   1
 -14   8   3 4039.20 273.264  -2
   2  -8 -13 4039.20 273.264   1
  -2   8  12 8987.50 245.651   1
  12  -8  -3 15139.9 347.609  -2
  -2   8  11 15139.9 347.609   1
  -2   8  10 6124.36 213.501   1
  10  -8  -3 1394.49 140.344  -2
  -2   8   9 1394.49 140.344   1
   8  -8  -2 9707.88 208.263  -2
  -2   8   8 9707.88 208.263   1
  -2   8   7 2305.40 136.138   1
  -6  -8   2 19011.3 264.166  -2
   2   8  -6 19011.3 264.166   1
  -2   8   5 13221.1 211.970   1
   4  -8  -2 39690.2 428.247  -2
  -2   8   4 39690.2 428.247   1
   2   8  -3 989.071 122.392   1
  -2  -8   2 6449.10 70.5380  -2
   2   8  -2 6449.10 70.5380   1
  -2   8   1 419.324 98.6706   1
   0  -8   2 24774.5 326.054  -2
   2   8   0 24774.5 326.054   1
   2   8   1 15143.1 207.279   1
  -2  -8  -2 4342.42 179.349  -2
  -2   8  -2 4342.42 179.349   1
  -2   8  -3 680.002 120.658   1
   4  -8   2 81921.5 426.122  -2
   2   8   4 81921.5 426.122   1
  -6  -8  -1 6411.50 177.031  -2
  -2   8  -5 6411.50 177.031   1
   2   8   6 8383.99 170.516   1
   8  -8   1 29312.0 290.258  -2
   2   8   7 29312.0 290.258   1
   2   8   8 9403.26 336.774   1
  10  -8   1 5642.17 385.211  -2
   2   8   9 5642.17 385.211   1
   2   8  10 17524.7 434.221   1
  12  -8   1 19288.9 595.231  -2
   2   8  11 19288.9 595.231   1
   2   8  12 8076.06 368.418   1
  14  -8   1 10401.5 508.468  -2
   2   8  13 10401.5 508.468   1
   2   8  14 2798.15 324.202   1
  16  -8   1 276.168 174.687  -2
   2   8  15 276.168 174.687   1
   2   8  16 1002.02 140.054   1
  18  -8   1 580.641 185.844  -2
   2   8  17 580.641 185.844   1
  20  -8   0 3425.34 207.868  -2
   2   8  18 3425.34 207.868   1
   2   8  19 292.158 120.788   1
  22  -8   0 1390.10 166.010  -2
   2   8  20 1390.10 166.010   1
   2   8  21 848.166 143.438   1
  24  -8   0 751.940 184.389  -2
   2   8  22 751.940 184.389   1
   2   8  23 1451.96 146.525   1
  26  -8   0 3.97421 74.8544  -2
   2   8  24 3.97421 74.8544   1
   2   8  25 41.2093 204.846   1
 -28   8   0 139.908 216.842  -2
  -2  -8 -26 139.908 216.842   1
  -2  -8 -27 22.2396 164.829   1
 -30   8   0 356.484 207.440  -2
  -2  -8 -28 356.484 207.440   1
   2   8  29 311.434 168.535   1
   2   8  30 632.013 163.197   1
   2   8  31 756.028 154.992   1
   2   8  32 59.2209 131.007   1
  -2  10  31 235.059 105.653   1
  32 -10  -4 645.124 167.341  -2
  -2  10  30 645.124 167.341   1
  -2  10  29 138.061 140.326   1
  30 -10  -4 1882.57 211.253  -2
  -2  10  28 1882.57 211.253   1
  -2  10  27 20.5536 162.598   1
  28 -10  -4 1934.20 240.795  -2
  -2  10  26 1934.20 240.795   1
  -2  10  25 247.465 183.961   1
  26 -10  -4 529.828 247.482  -2
  -2  10  24 529.828 247.482   1
   2 -10 -23 600.591 158.647   1
  24 -10  -4 2478.97 217.711  -2
  -2  10  22 2478.97 217.711   1
 -22  10   3 3156.21 390.537  -2
   2 -10 -21 3156.21 390.537   1
   2 -10 -20 245.478 295.426   1
  -2  10  16 3822.42 389.362   1
  16 -10  -3 29266.7 857.120  -2
  -2  10  15 29266.7 857.120   1
  -2  10  14 1167.31 321.092   1
  14 -10  -3 4186.59 467.584  -2
  -2  10  13 4186.59 467.584   1
  -2  10  12 3146.98 350.910   1
  12 -10  -3 12236.2 550.192  -2
  -2  10  11 12236.2 550.192   1
  -2  10  10 5047.24 346.966   1
  10 -10  -3 6984.66 439.906  -2
  -2  10   9 6984.66 439.906   1
   8 -10  -2 5780.07 396.058  -2
  -2  10   8 5780.07 396.058   1
  -2  10   7 2923.59 159.850   1
   6 -10  -2 35107.4 416.208  -2
  -2  10   6 35107.4 416.208   1
  -2  10   5 564.577 132.390   1
  -4 -10   2 13348.3 312.529  -2
   2  10  -4 13348.3 312.529   1
   2  10  -3 6172.97 191.911   1
  -2 -10   2 69194.6 625.227  -2
   2  10  -2 69194.6 625.227   1
   2  10  -1 3748.75 164.963   1
   0 -10   2 2915.11 203.282  -2
   2  10   0 2915.11 203.282   1
   2  10   1 2437.63 128.826   1
   2 -10   2 7635.01 212.423  -2
   2  10   2 7635.01 212.423   1
   2  10   3 1074.09 137.948   1
   4 -10   2 71795.6 469.424  -2
   2  10   4 71795.6 469.424   1
   6 -10   1 13075.4 452.079  -2
   2  10   5 13075.4 452.079   1
   2  10   6 231.044 221.657   1
   8 -10   1 2103.36 317.389  -2
   2  10   7 2103.36 317.389   1
   2  10   8 1672.40 257.107   1
  10 -10   1 1650.10 357.275  -2
   2  10   9 1650.10 357.275   1
   2  10  10 20999.3 518.100   1
  12 -10   1 4400.23 137.764  -2
   2  10  11 4400.23 137.764   1
   2  10  12 28.6793 297.702   1
  14 -10   1 12858.7 597.559  -2
   2  10  13 12858.7 597.559   1
   2  10  14 1463.40 313.405   1
  16 -10   1 8771.56 525.071  -2
   2  10  15 8771.56 525.071   1
   2  10  16 4706.29 379.529   1
   2  10  19 714.352 213.793   1
  22 -10   0 561.016 273.772  -2
   2  10  20 561.016 273.772   1
   2  10  21 480.484 208.398   1
  24 -10   0 922.090 261.996  -2
   2  10  22 922.090 261.996   1
  -2 -10 -23 1151.82 169.655   1
  26 -10   0 1548.92 102.292  -2
   2  10  24 1548.92 102.292   1
  -2 -10 -25 458.320 153.036   1
 -28  10   0 311.616 186.432  -2
  -2 -10 -26 311.616 186.432   1
   2  10  27 435.191 162.978   1
  30 -10   0 1072.12 203.494  -2
   2  10  28 1072.12 203.494   1
   2  10  29 10.9730 133.245   1
   2  10  30 101.034 115.993   1
  30 -12  -4 1417.91 138.174  -2
  -2  12  28 1417.91 138.174   1
  -2  12  27 14.0161 118.407   1
  28 -12  -4 793.816 173.206  -2
  -2  12  26 793.816 173.206   1
  -2  12  25 779.613 152.771   1
  26 -12  -4 173.716 198.709  -2
  -2  12  24 173.716 198.709   1
  -2  12  23 245.610 172.425   1
  24 -12  -4 7477.66 255.750  -2
  -2  12  22 7477.66 255.750   1
  -2  12  21 2021.51 190.384   1
  -2  12  20 1461.58 197.528   1
  10 -12  -3 14515.0 566.777  -2
  -2  12   9 14515.0 566.777   1
   8 -12  -2 6478.10 454.625  -2
  -2  12   8 6478.10 454.625   1
  -2  12   7 2137.91 319.298   1
   6 -12  -2 1223.01 352.945  -2
  -2  12   6 1223.01 352.945   1
  -2  12   5 2991.72 209.362   1
   4 -12  -2 10136.6 352.604  -2
  -2  12   4 10136.6 352.604   1
   2  12  -3 1625.08 154.628   1
   2 -12  -2 5834.99 113.604  -2
  -2  12   2 5834.99 113.604   1
   2  12  -1 94.1096 164.333   1
   0 -12   2 2069.74 246.708  -2
   2  12   0 2069.74 246.708   1
   2  12   1 9385.77 367.836   1
   2 -12   2 2275.99 360.490  -2
   2  12   2 2275.99 360.490   1
   2  12   3 4801.20 304.995   1
   4 -12   2 1506.81 331.445  -2
   2  12   4 1506.81 331.445   1
   6 -12   1 1028.26 352.959  -2
   2  12   5 1028.26 352.959   1
   2  12   6 1698.30 200.573   1
   8 -12   1 7379.66 344.471  -2
   2  12   7 7379.66 344.471   1
   2  12   8 4715.41 244.423   1
  18 -12   1 7209.04 293.334  -2
   2  12  17 7209.04 293.334   1
  20 -12   0 5072.62 224.541  -2
   2  12  18 5072.62 224.541   1
   2  12  19 1255.84 164.690   1
  22 -12   0 6015.02 219.991  -2
   2  12  20 6015.02 219.991   1
  -2 -12 -21 4015.65 167.405   1
  24 -12   0 347.600 221.580  -2
   2  12  22 347.600 221.580   1
   2  12  23 1250.12 180.259   1
  26 -12   0 872.768 207.574  -2
   2  12  24 872.768 207.574   1
   2  12  25-19.3833 140.137   1
  28 -12   0 331.710 164.610  -2
   2  12  26 331.710 164.610   1
   2  12  27 236.428 112.530   1
  -2  14  23 2.03364 106.544   1
  -2  14  22 833.770 124.301   1
  -2  14  21 28.9663 133.104   1
  -2  14  20 94.4474 141.602   1
  20 -14  -3 193.062 192.016  -2
  -2  14  19 193.062 192.016   1
  -2  14  18 1557.36 173.743   1
  18 -14  -3 54.9811 207.490  -2
  -2  14  17 54.9811 207.490   1
   2  14  12 3699.54 194.790   1
  14 -14   1 3209.58 240.035  -2
   2  14  13 3209.58 240.035   1
   2  14  14 1048.10 167.964   1
  16 -14   1 352.834 210.895  -2
   2  14  15 352.834 210.895   1
   2  14  16 187.239 166.247   1
  18 -14   1 818.646 202.392  -2
   2  14  17 818.646 202.392   1
  20 -14   0 808.994 195.655  -2
   2  14  18 808.994 195.655   1
   2  14  19 519.907 157.207   1
  22 -14   0 516.531 176.769  -2
   2  14  20 516.531 176.769   1
   2  14  21 30.3546 125.643   1
   3  -1 -37 67.9600 121.541   1
   3  -1 -36 158.813 141.616   1
   3  -1 -35 168.473 169.252   1
   3  -1 -34 188.762 185.579   1
 -35   1   5 990.024 261.501  -2
   3  -1 -33 990.024 261.501   1
   3   1 -32-83.2841 278.939   1
 -33  -1   5 2214.73 385.416  -2
   3   1 -31 2214.73 385.416   1
  -3   1  30 1308.41 189.368   1
  31  -1  -5 2065.80 246.290  -2
  -3   1  29 2065.80 246.290   1
  -3   1  28 3235.94 196.410   1
  29  -1  -5 8479.23 286.091  -2
  -3   1  27 8479.23 286.091   1
  -3   1  26 117.671 157.322   1
  27  -1  -5 13243.4 203.824  -2
  -3   1  25 13243.4 203.824   1
  -3   1  24 908.993 111.506   1
  -3   1  23 1490.18 145.199   1
  25  -1  -5 2419.97 233.738  -2
  -3   1  23 2419.97 233.738   1
  -3   1  22 1678.57 135.702   1
  23  -1  -4 2340.29 163.674  -2
  -3   1  22 2340.29 163.674   1
  -3  -1  21 7303.17 122.402   1
  -3   1  20 1020.62 163.875   1
  21   1  -4 3881.71 238.976  -2
  -3  -1  20 3881.71 238.976   1
  -3  -1  19 20226.9 293.615   1
  19   1  -4 2323.52 227.986  -2
  -3  -1  18 2323.52 227.986   1
  -3   1  17 7473.66 184.535   1
  17  -1  -4 4907.03 120.041  -2
  -3   1  16 4907.03 120.041   1
  -3   1  15 20063.1 228.417   1
  15  -1  -4 885.250 171.291  -2
  -3   1  14 885.250 171.291   1
   3  -1 -13 336.953 65.9607   1
 -13   1   4 11577.9 128.923  -2
   3  -1 -12 11577.9 128.923   1
   3  -1 -11 14941.2 120.826   1
   3   1 -10 527.363 72.0011   1
   3   1  -9 605.292 60.7437   1
   9  -1  -3 4522.13 221.733  -2
  -3   1   9 4522.13 221.733   1
   3   1  -8 2265.22 62.8040   1
  -7  -1   3 49026.1 145.366  -2
   3   1  -7 49026.1 145.366   1
  -3   1   6 179796. 593.253   1
  -5   1   3 191576. 351.439  -2
   3  -1  -5 191576. 351.439   1
   3  -1  -4 8280.96 98.7574   1
   3  -1  -3 206892. 104.858  -2
  -3   1   3 206892. 104.858   1
   3  -1  -2 19303.4 87.0362   1
   3   1  -1 549.595 56.6599   1
   1  -1  -3 59004.9 151.615  -2
  -3   1   1 59004.9 151.615   1
  -3  -1   0 52690.8 75.0134   1
   3   1   1 6055.06 40.3543   1
   3   1   2 3514.14 51.3921   1
  -3  -1  -3 51454.6 91.0720   1
   3  -1   4 164.625 35.3324   1
   3  -1   5 2090.34 52.1503   1
   3  -1   6 61539.9 213.432   1
  -3  -1  -7 559.258 39.0602   1
   9  -1   2 4642.20 97.9603  -2
   3   1   8 4642.20 97.9603   1
   3  -1   9 54096.7 177.065   1
  11   1   2 13209.8 94.0677  -2
   3  -1  10 13209.8 94.0677   1
   3  -1  11 1104.04 69.9300   1
 -13  -1  -2 25510.7 207.979  -2
  -3   1 -12 25510.7 207.979   1
   3  -1  13 6321.70 119.766   1
 -15   1  -2 28458.5 249.719  -2
  -3  -1 -14 28458.5 249.719   1
   3  -1  15 6426.55 155.520   1
 -17  -1  -2 7342.37 186.604  -2
  -3   1 -16 7342.37 186.604   1
  -3  -1 -17 120.228 192.770   1
  19   1   1 4334.57 251.636  -2
   3  -1  17 4334.57 251.636   1
  -3  -1 -18 148.356 129.259   1
 -21   1  -1 3399.57 196.562  -2
  -3  -1 -19 3399.57 196.562   1
   3   1  20 111.185 67.4139   1
 -23   1  -1 1345.74 100.534  -2
  -3  -1 -21 1345.74 100.534   1
   3   1  22 322.224 80.1994   1
  25  -1   1 856.044 96.1784  -2
   3   1  23 856.044 96.1784   1
   3  -1  24 1593.45 93.6541   1
  27  -1   1 387.711 124.437  -2
   3   1  25 387.711 124.437   1
   3   1  26 1370.36 95.3330   1
  29   1   1 4506.03 132.832  -2
   3  -1  27 4506.03 132.832   1
  -3  -1 -28 95.1990 110.327   1
   3   1  29 3448.14 158.428   1
   3  -1  30 3453.10 160.197   1
   3  -1  31 726.598 140.230   1
   3  -1  32 1144.01 193.469   1
  35  -1   0 1585.41 241.813  -2
   3   1  32 1585.41 241.813   1
   3   1  33 1486.17 151.026   1
  37  -1   0 844.697 166.009  -2
   3   1  34 844.697 166.009   1
  -3  -1 -35 376.255 138.402   1
 -39   1   0 83.4587 73.8140  -2
  -3  -1 -36 83.4587 73.8140   1
   3  -3 -36 222.872 129.426   1
   3  -3 -35 187.086 150.672   1
   3   3 -34 177.339 164.367   1
  -3   3  33 475.396 147.849   1
 -35  -3   5 638.532 334.534  -2
   3   3 -33 638.532 334.534   1
  -3   3  32 14.6873 133.973   1
  33  -3  -5 585.718 184.710  -2
  -3   3  31 585.718 184.710   1
  -3   3  30 136.984 148.869   1
  31  -3  -5 3054.95 210.314  -2
  -3   3  29 3054.95 210.314   1
   3   3 -28 203.673 144.720   1
 -29  -3   5 2322.39 182.850  -2
   3   3 -27 2322.39 182.850   1
  -3   3  26 75.1439 146.572   1
  27  -3  -5 3279.70 198.568  -2
  -3   3  25 3279.70 198.568   1
  -3   3  24 2100.81 126.086   1
  -3   3  23 311.407 131.649   1
 -25   3   5 688.371 191.649  -2
   3  -3 -23 688.371 191.649   1
  -3   3  22 632.667 155.761   1
  23  -3  -4 2794.69 162.872  -2
  -3   3  22 2794.69 162.872   1
   3  -3 -21 201.194 92.2849   1
  21  -3  -4 9605.19 142.819  -2
  -3   3  20 9605.19 142.819   1
   3  -3 -19 4659.99 159.342   1
  19   3  -4 12494.1 269.376  -2
  -3  -3  18 12494.1 269.376   1
  -3  -3  17 585.257 134.012   1
  17  -3  -4 1454.06 245.621  -2
  -3   3  16 1454.06 245.621   1
   3  -3 -15 13997.8 262.819   1
 -15  -3   4 40799.4 271.135  -2
   3   3 -14 40799.4 271.135   1
  -3   3  13 12089.6 143.087   1
  13  -3  -4 13242.6 257.431  -2
  -3   3  12 13242.6 257.431   1
  -3   3  11 22264.3 243.951   1
   3  -3 -10 6800.89 218.218   1
  11  -3  -4 18938.5 350.643  -2
  -3   3  10 18938.5 350.643   1
  -3   3   9 10202.2 168.737   1
   3  -3  -8 2907.52 122.630   1
  -3   3   7 9713.58 141.687   1
  -7   3   3 38705.8 358.206  -2
   3  -3  -7 38705.8 358.206   1
   3  -3  -6 43598.8 157.157   1
  -5   3   3 42796.6 166.228  -2
   3  -3  -5 42796.6 166.228   1
  -3   3   4 23361.3 132.114   1
  -3  -3   3 848.651 40.7637  -2
   3   3  -3 848.651 40.7637   1
   3   3  -2 20182.9 146.525   1
   3  -3  -1 2985.00 124.040   1
  -1  -3   3 22287.6 161.244  -2
   3   3  -1 22287.6 161.244   1
   3   3   0 157773. 353.145   1
   3   3   1 10934.5 186.152   1
  -3   3  -2 108949. 214.059   1
   3   3   3 3116.10 58.8089   1
   3   3   4 420.225 70.6610   1
   3   3   5 42662.3 128.031   1
  -3  -3  -6 92173.6 420.104   1
  -7  -3  -2 118629. 565.398  -2
  -3   3  -6 118629. 565.398   1
  -3  -3  -7 5008.36 119.539   1
  -9   3  -2 49171.5 340.789  -2
  -3  -3  -8 49171.5 340.789   1
  -3  -3  -9 13489.0 171.523   1
 -11  -3  -2 34610.6 186.587  -2
  -3   3 -10 34610.6 186.587   1
  -3  -3 -11 4322.25 75.6884   1
 -13  -3  -2 130320. 451.322  -2
  -3   3 -12 130320. 451.322   1
   3  -3  13 7170.54 127.493   1
 -15   3  -2 32112.9 206.545  -2
  -3  -3 -14 32112.9 206.545   1
  -3   3 -15 14385.5 152.829   1
  -3  -3 -16 5912.59 166.402   1
 -17   3  -2 6246.17 196.842  -2
  -3  -3 -16 6246.17 196.842   1
  -3  -3 -17 5807.41 262.042   1
 -19   3  -1 10809.9 263.709  -2
  -3  -3 -17 10809.9 263.709   1
   3   3  18 886.811 148.352   1
  21  -3   1 2620.96 124.259  -2
   3   3  19 2620.96 124.259   1
   3   3  20 80.4384 81.8988   1
  23   3   1 417.589 114.513  -2
   3  -3  21 417.589 114.513   1
  -3  -3 -22 18.3413 100.168   1
  25  -3   1 470.476 134.133  -2
   3   3  23 470.476 134.133   1
   3   3  24 481.180 112.033   1
  27   3   1 935.799 151.007  -2
   3  -3  25 935.799 151.007   1
   3  -3  26 68.2974 113.567   1
  29  -3   1 837.723 158.054  -2
   3   3  27 837.723 158.054   1
  -3  -3 -28 523.454 128.254   1
   3   3  29 1457.01 210.078   1
 -31   3  -1 1820.61 400.063  -2
  -3  -3 -29 1820.61 400.063   1
   3   3  30 3587.51 214.361   1
 -33  -3   0 3588.53 345.399  -2
  -3   3 -30 3588.53 345.399   1
  -3   3 -31 39.0635 145.744   1
  35  -3   0 280.266 179.269  -2
   3   3  32 280.266 179.269   1
   3   3  33 433.747 126.295   1
 -37  -3   0 1072.35 155.052  -2
  -3   3 -34 1072.35 155.052   1
  -3  -3 -35 143.050 115.855   1
 -39   3   0 277.323 212.313  -2
  -3  -3 -36 277.323 212.313   1
   3  -5 -35 103.972 168.456   1
   3   5 -34 63.2259 95.7506   1
  -3   5  33 280.884 149.339   1
 -35  -5   5 318.063 199.643  -2
   3   5 -33 318.063 199.643   1
  -3   5  32 66.6974 128.806   1
  33  -5  -5 1749.96 184.695  -2
  -3   5  31 1749.96 184.695   1
   3   5 -30 425.099 142.273   1
 -31  -5   5 835.532 193.484  -2
   3   5 -29 835.532 193.484   1
  -3   5  28 544.539 151.899   1
 -29  -5   5 1318.01 178.752  -2
   3   5 -27 1318.01 178.752   1
  -3   5  26 12.1937 133.161   1
  27  -5  -5 2125.55 177.762  -2
  -3   5  25 2125.55 177.762   1
   3  -5 -24 64.6201 125.783   1
  -3   5  23-30.0275 167.357   1
 -25   5   5 1314.24 228.244  -2
   3  -5 -23 1314.24 228.244   1
  -3   5  22 265.595 174.073   1
 -23   5   4 4711.56 177.270  -2
   3  -5 -22 4711.56 177.270   1
  -3   5  21 814.025 118.053   1
 -21  -5   4 1062.30 131.201  -2
   3   5 -20 1062.30 131.201   1
   3   5 -19 2151.03 102.963   1
  19  -5  -4 1874.33 176.211  -2
  -3   5  18 1874.33 176.211   1
   3  -5 -17 5180.02 275.829   1
 -17   5   4 948.452 207.583  -2
   3  -5 -16 948.452 207.583   1
   3  -5 -15 3668.64 177.976   1
 -15   5   4 6152.98 241.739  -2
   3  -5 -14 6152.98 241.739   1
   3  -5 -13 8725.43 197.907   1
 -13   5   4 763.157 179.297  -2
   3  -5 -12 763.157 179.297   1
   3  -5 -11 17510.9 219.201   1
   3  -5 -10 4726.70 191.716   1
 -11   5   4 5742.52 289.660  -2
   3  -5 -10 5742.52 289.660   1
   3  -5  -9 9990.20 207.419   1
  -9   5   3 38655.4 422.035  -2
   3  -5  -9 38655.4 422.035   1
   3  -5  -8 2223.13 91.5578   1
  -7  -5   3 38734.2 194.092  -2
   3   5  -7 38734.2 194.092   1
   3   5  -6 432.852 97.4505   1
  -5  -5   3 20739.5 238.070  -2
   3   5  -5 20739.5 238.070   1
   3  -5  -4 199.596 98.4737   1
  -3  -5   3 184098. 665.367  -2
   3   5  -3 184098. 665.367   1
   3   5  -2 47388.9 217.638   1
  -1  -5   3 49139.7 243.169  -2
   3   5  -1 49139.7 243.169   1
  -3   5   0 697.890 90.3628   1
   1  -5   3 6517.74 136.343  -2
   3   5   1 6517.74 136.343   1
  -3   5  -2 18236.8 166.076   1
  -3   5  -3 26094.6 183.717   1
   3   5   4 16045.9 275.775   1
   3   5   5 31118.2 203.451   1
  -7  -5  -2 14220.6 139.199  -2
  -3   5  -6 14220.6 139.199   1
  -3  -5  -7 8514.61 109.215   1
   9  -5   2 4975.83 204.604  -2
   3   5   8 4975.83 204.604   1
   3   5   9 80328.9 409.508   1
  11  -5   2 30404.3 364.957  -2
   3   5  10 30404.3 364.957   1
  -3  -5 -11 4018.20 160.717   1
 -13   5  -2 2164.64 183.174  -2
  -3  -5 -12 2164.64 183.174   1
  -3  -5 -13 1461.52 141.784   1
 -15   5  -2 13268.9 217.733  -2
  -3  -5 -14 13268.9 217.733   1
  -3  -5 -15 25090.0 241.891   1
  17  -5   2 14772.3 218.568  -2
   3   5  16 14772.3 218.568   1
  -3  -5 -17 7719.15 347.998   1
  19  -5   1 7720.54 129.548  -2
   3   5  17 7720.54 129.548   1
  -3  -5 -18 3782.79 107.359   1
  21  -5   1 6576.37 150.864  -2
   3   5  19 6576.37 150.864   1
   3   5  20 1433.55 108.627   1
  23  -5   1 165.800 139.417  -2
   3   5  21 165.800 139.417   1
   3   5  22 368.032 115.949   1
  25  -5   1 448.625 53.7636  -2
   3   5  23 448.625 53.7636   1
   3   5  24 342.032 141.631   1
  27  -5   1 1482.64 200.249  -2
   3   5  25 1482.64 200.249   1
   3   5  26 2175.20 134.655   1
  29  -5   1 2713.25 205.858  -2
   3   5  27 2713.25 205.858   1
   3   5  28 921.030 131.675   1
  -3  -5 -29 331.901 164.216   1
   3   5  30 23.5806 180.958   1
   3   5  31 414.738 181.446   1
  35  -5   0 458.737 213.209  -2
   3   5  32 458.737 213.209   1
   3   5  33 888.194 164.513   1
  37  -5   0 29.3789 178.227  -2
   3   5  34 29.3789 178.227   1
  -3   7  33-25.7390 126.249   1
   3  -7 -32 252.320 116.361   1
 -33   7   5 708.859 168.254  -2
   3  -7 -31 708.859 168.254   1
  -3   7  30 322.625 167.451   1
  31  -7  -5 1258.56 246.868  -2
  -3   7  29 1258.56 246.868   1
  -3   7  28 1629.15 203.000   1
  29  -7  -5 1321.35 256.962  -2
  -3   7  27 1321.35 256.962   1
   3  -7 -26 76.7907 165.839   1
 -27   7   5 821.078 217.043  -2
   3  -7 -25 821.078 217.043   1
  -3   7  24 3128.44 186.135   1
  -3   7  23 725.960 199.796   1
 -25   7   5 720.333 399.170  -2
   3  -7 -23 720.333 399.170   1
 -23   7   4 7405.18 341.583  -2
   3  -7 -22 7405.18 341.583   1
  -3   7  21 259.938 207.664   1
  21  -7  -4 198.792 257.945  -2
  -3   7  20 198.792 257.945   1
   3  -7 -19 1934.70 214.955   1
 -19   7   4 545.984 89.3612  -2
   3  -7 -18 545.984 89.3612   1
   3  -7 -17 8857.84 175.571   1
 -17   7   4 32.0666 165.627  -2
   3  -7 -16 32.0666 165.627   1
   3  -7 -15 484.413 232.238   1
 -15   7   4 5937.59 377.532  -2
   3  -7 -14 5937.59 377.532   1
   3  -7 -13 2136.97 239.561   1
 -13   7   4 2278.12 311.572  -2
   3  -7 -12 2278.12 311.572   1
   3  -7 -11 1228.84 223.060   1
 -11   7   4 38635.3 516.680  -2
   3  -7 -10 38635.3 516.680   1
   3   7  -9 267.194 132.284   1
  -9   7   3 998.614 269.901  -2
   3  -7  -9 998.614 269.901   1
   3  -7  -8 7366.52 170.278   1
  -7   7   3 14704.4 233.933  -2
   3  -7  -7 14704.4 233.933   1
   3   7  -6 11424.0 162.586   1
  -5  -7   3 18856.1 250.490  -2
   3   7  -5 18856.1 250.490   1
   3   7  -4 55636.6 358.383   1
   3  -7  -3 12757.5 258.989  -2
  -3   7   3 12757.5 258.989   1
   3   7  -2 11959.2 153.498   1
  -1  -7   3 3865.49 147.796  -2
   3   7  -1 3865.49 147.796   1
  -3   7   0 41525.6 295.250   1
  -1  -7  -3 23855.2 253.377  -2
  -3   7  -1 23855.2 253.377   1
   3   7   2 26045.8 232.622   1
  -3  -7  -3 7030.67 165.930  -2
  -3   7  -3 7030.67 165.930   1
  -3   7  -4 3096.35 146.897   1
   5  -7   2 2742.94 260.674  -2
   3   7   4 2742.94 260.674   1
  -3   7  -5 3200.58 126.416   1
  -7  -7  -2 15139.4 205.604  -2
  -3   7  -6 15139.4 205.604   1
  -3   7  -7 624.110 97.0548   1
   9  -7   2 10367.2 410.706  -2
   3   7   8 10367.2 410.706   1
   3   7   9 6290.08 293.131   1
  11  -7   2 20103.8 551.989  -2
   3   7  10 20103.8 551.989   1
   3   7  11 1436.04 245.479   1
  13  -7   2 22728.6 369.509  -2
   3   7  12 22728.6 369.509   1
   3   7  13 557.073 245.657   1
  15  -7   2 17312.5 525.673  -2
   3   7  14 17312.5 525.673   1
   3   7  15 550.785 129.868   1
  17  -7   2 2582.47 174.657  -2
   3   7  16 2582.47 174.657   1
  19  -7   1 2354.31 187.385  -2
   3   7  17 2354.31 187.385   1
   3   7  18 1316.75 115.574   1
  21  -7   1 704.140 154.351  -2
   3   7  19 704.140 154.351   1
   3   7  20 452.766 125.434   1
  23  -7   1 1202.62 167.625  -2
   3   7  21 1202.62 167.625   1
   3   7  22 228.071 138.318   1
  25  -7   1 657.315 192.206  -2
   3   7  23 657.315 192.206   1
   3   7  24 548.580 147.974   1
  27  -7   1 2398.38 202.572  -2
   3   7  25 2398.38 202.572   1
   3   7  26 519.415 212.582   1
  29  -7   1 3372.87 284.548  -2
   3   7  27 3372.87 284.548   1
  -3  -7 -28 1789.15 168.978   1
   3   7  29 240.944 186.534   1
 -31   7  -1 594.746 381.964  -2
  -3  -7 -29 594.746 381.964   1
   3   7  30 1577.23 191.914   1
   3   7  31 186.658 162.381   1
  35  -7   0 709.096 194.607  -2
   3   7  32 709.096 194.607   1
   3   7  33 124.541 131.243   1
  -3   9  32 58.7443 114.068   1
  33  -9  -5 658.695 174.637  -2
  -3   9  31 658.695 174.637   1
  -3   9  30 14.5053 137.344   1
  31  -9  -5 415.198 209.751  -2
  -3   9  29 415.198 209.751   1
  -3   9  28 6.08616 165.482   1
  29  -9  -5 1189.64 231.789  -2
  -3   9  27 1189.64 231.789   1
  -3   9  26 0.05169 179.473   1
  27  -9  -5 1479.13 252.749  -2
  -3   9  25 1479.13 252.749   1
   3  -9 -24 1438.42 170.571   1
  25  -9  -5 519.761 218.971  -2
  -3   9  23 519.761 218.971   1
 -23   9   4 974.286 397.521  -2
   3  -9 -22 974.286 397.521   1
   3  -9 -21 906.614 296.760   1
  -3   9  19 4974.12 413.637   1
  19  -9  -4 724.585 413.686  -2
  -3   9  18 724.585 413.686   1
  -3   9  17 715.355 312.275   1
  17  -9  -4 7192.83 533.535  -2
  -3   9  16 7192.83 533.535   1
  -3   9  15 126.534 308.147   1
  15  -9  -4 2506.33 422.654  -2
  -3   9  14 2506.33 422.654   1
  -3   9  13 531.332 286.422   1
  13  -9  -4 1140.11 368.160  -2
  -3   9  12 1140.11 368.160   1
  -3   9  11 2703.04 298.536   1
  11  -9  -4 8026.87 424.489  -2
  -3   9  10 8026.87 424.489   1
   9  -9  -3 9980.74 232.959  -2
  -3   9   9 9980.74 232.959   1
   3   9  -8 810.171 130.007   1
  -7  -9   3 23748.5 343.551  -2
   3   9  -7 23748.5 343.551   1
  -3   9   6 137.738 115.484   1
   5  -9  -3 1201.42 172.635  -2
  -3   9   5 1201.42 172.635   1
  -3   9   4 35.4370 111.638   1
  -3  -9   3 16133.5 128.812  -2
   3   9  -3 16133.5 128.812   1
  -3   9   2 56.5986 117.229   1
  -1  -9   3 6147.56 223.289  -2
   3   9  -1 6147.56 223.289   1
  -3   9   0 341.973 94.0757   1
  -1  -9  -3 731.403 128.758  -2
  -3   9  -1 731.403 128.758   1
  -3   9  -2 45348.0 349.001   1
  -3  -9  -3 9007.34 213.684  -2
  -3   9  -3 9007.34 213.684   1
   5  -9   2 12646.2 228.308  -2
   3   9   4 12646.2 228.308   1
   3   9   5 411.932 110.212   1
   7  -9   2 3015.07 313.478  -2
   3   9   6 3015.07 313.478   1
   3   9   7 2351.71 257.741   1
   9  -9   2 1056.50 325.404  -2
   3   9   8 1056.50 325.404   1
   3   9   9 24135.3 506.519   1
  11  -9   2 15640.9 177.251  -2
   3   9  10 15640.9 177.251   1
   3   9  11 7244.40 356.763   1
  13  -9   2 2673.33 393.041  -2
   3   9  12 2673.33 393.041   1
   3   9  13 499.685 275.646   1
  15  -9   2 6299.01 466.563  -2
   3   9  14 6299.01 466.563   1
   3   9  15 100.570 270.803   1
  17  -9   2 11640.3 513.551  -2
   3   9  16 11640.3 513.551   1
  19  -9   1 3466.95 405.079  -2
   3   9  17 3466.95 405.079   1
   3   9  18 2923.85 135.547   1
  21  -9   1 1748.03 181.926  -2
   3   9  19 1748.03 181.926   1
   3   9  20 863.501 138.607   1
  23  -9   1 854.614 178.714  -2
   3   9  21 854.614 178.714   1
   3   9  22 80.0639 201.733   1
  25  -9   1 1193.27 277.292  -2
   3   9  23 1193.27 277.292   1
   3   9  24 584.241 205.584   1
  27  -9   1 1944.01 276.702  -2
   3   9  25 1944.01 276.702   1
   3   9  26 342.554 159.613   1
 -29   9  -1 2070.76 205.860  -2
  -3  -9 -27 2070.76 205.860   1
  -3  -9 -28 449.030 144.055   1
   3   9  29 462.651 165.018   1
   3   9  30 125.981 143.274   1
   3   9  31 594.148 132.170   1
  31 -11  -5 209.540 148.008  -2
  -3  11  29 209.540 148.008   1
  -3  11  28 3.84330 126.275   1
  29 -11  -5 253.284 184.043  -2
  -3  11  27 253.284 184.043   1
  -3  11  26 43.6900 150.286   1
  27 -11  -5 552.608 214.698  -2
  -3  11  25 552.608 214.698   1
  -3  11  24 689.521 171.599   1
  -3  11  23 86.6776 173.233   1
  -3  11  22 1608.26 201.764   1
 -19  11   4 1874.70 363.708  -2
   3 -11 -18 1874.70 363.708   1
  -3  11  13 11144.1 462.673   1
  13 -11  -4 503.121 395.560  -2
  -3  11  12 503.121 395.560   1
  -3  11  11 26.1759 284.663   1
  11 -11  -4 7356.52 475.174  -2
  -3  11  10 7356.52 475.174   1
   9 -11  -3 1094.31 377.252  -2
  -3  11   9 1094.31 377.252   1
  -3  11   8 2971.29 309.953   1
   7 -11  -3 929.748 338.626  -2
  -3  11   7 929.748 338.626   1
  -3  11   6 11192.6 241.055   1
   5 -11  -3 684.577 191.161  -2
  -3  11   5 684.577 191.161   1
  -3  11   4 11160.9 239.483   1
  -3 -11   3 5062.30 75.1910  -2
   3  11  -3 5062.30 75.1910   1
   3  11  -2 2108.20 167.335   1
   1 -11  -3 30091.6 372.116  -2
  -3  11   1 30091.6 372.116   1
   3  11   0 6450.67 208.807   1
   1 -11   3 12949.1 304.087  -2
   3  11   1 12949.1 304.087   1
  -3  11  -2 726.486 139.228   1
   3 -11   3 3470.04 322.247  -2
   3  11   3 3470.04 322.247   1
   5 -11   2 175.659 205.364  -2
   3  11   4 175.659 205.364   1
   3  11   5 4571.64 212.355   1
   7 -11   2 2161.92 254.662  -2
   3  11   6 2161.92 254.662   1
   3  11   7 9764.09 269.173   1
   9 -11   2 2725.67 391.333  -2
   3  11   8 2725.67 391.333   1
   3  11   9 2783.62 316.139   1
  11 -11   2 12899.9 178.999  -2
   3  11  10 12899.9 178.999   1
   3  11  11 20498.7 533.758   1
  13 -11   2 2707.22 419.488  -2
   3  11  12 2707.22 419.488   1
  19 -11   1 3913.42 298.497  -2
   3  11  17 3913.42 298.497   1
   3  11  18 1611.80 224.461   1
  21 -11   1 8827.38 318.196  -2
   3  11  19 8827.38 318.196   1
   3  11  20 4611.50 231.640   1
  23 -11   1 2349.44 270.860  -2
   3  11  21 2349.44 270.860   1
  -3 -11 -22-37.4291 153.265   1
  25 -11   1 1150.75 90.1631  -2
   3  11  23 1150.75 90.1631   1
  -3 -11 -24-0.94107 143.669   1
  27 -11   1 313.521 212.132  -2
   3  11  25 313.521 212.132   1
   3  11  26 90.2035 150.145   1
  29 -11   1 423.624 182.125  -2
   3  11  27 423.624 182.125   1
   3  11  28 50.0965 122.454   1
  27 -13  -5 1312.93 155.472  -2
  -3  13  25 1312.93 155.472   1
  -3  13  24 5.41972 127.850   1
  -3  13  23 25.4791 139.332   1
  -3  13  22 8.37057 150.904   1
  -3  13  21 9.45719 158.725   1
  21 -13  -4 3819.10 240.788  -2
  -3  13  20 3819.10 240.788   1
  -3  13  19 42.4913 180.374   1
  15 -13   2 420.181 238.527  -2
   3  13  14 420.181 238.527   1
   3  13  15 1225.75 196.597   1
  17 -13   2 2578.46 245.456  -2
   3  13  16 2578.46 245.456   1
  19 -13   1 5374.96 249.164  -2
   3  13  17 5374.96 249.164   1
   3  13  18 2239.08 195.448   1
  21 -13   1 1506.93 233.446  -2
   3  13  19 1506.93 233.446   1
   3  13  20 1546.92 174.081   1
  23 -13   1 261.525 203.728  -2
   3  13  21 261.525 203.728   1
   3  13  22 57.3031 150.077   1
  25 -13   1 121.807 50.0977  -2
   3  13  23 121.807 50.0977   1
   3  13  24 900.019 125.435   1
  -3  15  19 158.680 113.979   1
  19 -15  -4 193.909 163.163  -2
  -3  15  18 193.909 163.163   1
  -3  15  17 2425.57 151.752   1
  17 -15  -4 1031.28 184.946  -2
  -3  15  16 1031.28 184.946   1
  -3  15  15 918.713 155.530   1
   4   0 -36 5.89895 214.471   1
 -36   0   6 1691.19 337.387  -2
   4   0 -34 1691.19 337.387   1
 -34   0   6 4573.89 402.633  -2
   4   0 -32 4573.89 402.633   1
  28   0  -6 5868.02 426.353  -2
  -4   0  26 5868.02 426.353   1
  -4   0  24 6391.92 333.304   1
   4   0 -22 677.989 160.787   1
  -4   0  20 5563.53 311.094   1
  -4   0  18 1710.01 255.821   1
  -4   0  16 1180.96 233.395   1
  -4   0  14 13987.0 326.872   1
  -4   0  12 338.322 82.3306   1
 -10   0   4 57829.2 282.889  -2
   4   0 -10 57829.2 282.889   1
  -8   0   4 661591. 990.249  -2
   4   0  -8 661591. 990.249   1
  -6   0   4 356228. 872.117  -2
   4   0  -6 356228. 872.117   1
  -4   0   4 41339.7 334.795  -2
   4   0  -4 41339.7 334.795   1
  -2   0   4 22052.9 242.997  -2
   4   0  -2 22052.9 242.997   1
   0   0   4 153412. 440.473  -2
   4   0   0 153412. 440.473   1
   4   0   2 183649. 256.142   1
   4   0   4 36852.1 123.513   1
   4   0   6 616.187 37.8951   1
  -4   0  -8 42728.0 210.351   1
   4   0  10 4881.49 109.830   1
   4   0  12 604.118 130.892   1
  -4   0 -14 1360.67 146.125   1
  -4   0 -16 5299.19 311.185   1
 -20   0  -2 2247.62 368.029  -2
  -4   0 -18 2247.62 368.029   1
  22   0   2 6948.62 164.020  -2
   4   0  20 6948.62 164.020   1
 -24   0  -2 10228.1 197.726  -2
  -4   0 -22 10228.1 197.726   1
 -26   0  -2 4358.77 187.163  -2
  -4   0 -24 4358.77 187.163   1
  28   0   2 1396.76 164.751  -2
   4   0  26 1396.76 164.751   1
   4   0  28 32.4204 213.143   1
  30   0   2 423.923 244.192  -2
   4   0  28 423.923 244.192   1
   4   0  30 307.591 198.985   1
   4   0  32 157.750 180.097   1
  -4   0 -34 127.447 213.315   1
  -4   0 -36 740.012 156.007   1
   4   2 -37 106.968 116.993   1
   4  -2 -36-5.96956 143.181   1
   4   2 -35 38.9805 160.055   1
 -36   2   6 549.905 241.605  -2
   4  -2 -34 549.905 241.605   1
   4   2 -33 410.713 181.702   1
 -34  -2   6-162.369 371.244  -2
   4   2 -32-162.369 371.244   1
   4   2 -31 632.985 136.852   1
 -32  -2   6 93.5146 63.5273  -2
   4   2 -30 93.5146 63.5273   1
   4   2 -29 880.648 141.038   1
  30  -2  -6 949.820 222.398  -2
  -4   2  28 949.820 222.398   1
  -4   2  27 57.8939 160.285   1
  28  -2  -6 1709.49 219.669  -2
  -4   2  26 1709.49 219.669   1
  -4  -2  25 336.315 123.470   1
  -4  -2  24 2518.37 129.455   1
 -26   2   6 3705.06 354.291  -2
   4  -2 -24 3705.06 354.291   1
  -4   2  23 3326.96 150.154   1
  24  -2  -5 6159.29 188.799  -2
  -4   2  23 6159.29 188.799   1
   4  -2 -22 1401.09 94.0180   1
  22   2  -5 1375.82 120.934  -2
  -4  -2  21 1375.82 120.934   1
  -4   2  20 253.115 112.493   1
  20  -2  -5 17108.9 353.760  -2
  -4   2  19 17108.9 353.760   1
  -4   2  18 8313.40 223.951   1
  18   2  -5 29156.0 418.689  -2
  -4  -2  17 29156.0 418.689   1
  -4   2  16 1244.67 160.481   1
  16  -2  -5 22076.2 506.822  -2
  -4   2  15 22076.2 506.822   1
   4   2 -14 2359.03 99.8847   1
 -14  -2   5 29015.9 202.543  -2
   4   2 -13 29015.9 202.543   1
   4   2 -12 17856.0 161.001   1
   4  -2 -11 10296.8 146.173   1
  12  -2  -5 11800.9 324.057  -2
  -4   2  11 11800.9 324.057   1
   4  -2 -10 2267.38 103.605   1
  10  -2  -4 7863.09 273.918  -2
  -4   2  10 7863.09 273.918   1
  -4   2   9 4780.15 150.025   1
  -8   2   4 8644.45 178.245  -2
   4  -2  -8 8644.45 178.245   1
  -4   2   7 5920.51 201.395   1
   6   2  -4 103919. 232.374  -2
  -4  -2   6 103919. 232.374   1
  -4  -2   5 9477.80 88.2414   1
   4   2  -4 52941.0 202.363  -2
  -4  -2   4 52941.0 202.363   1
  -4   2   3 14121.6 93.5813   1
  -2  -2   4 49304.1 159.568  -2
   4   2  -2 49304.1 159.568   1
  -4   2   1 23061.8 89.0455   1
  -4  -2   0 8256.51 67.9642   1
  -4  -2  -1 2766.02 62.4315   1
   4   2   2 126976. 334.423   1
   4   2   3 110847. 327.035   1
   4   2   4 91539.0 224.491   1
  -4  -2  -5 401353. 350.303   1
  -6   2  -3 515891. 1036.35  -2
  -4  -2  -5 515891. 1036.35   1
  -4  -2  -6 178195. 249.731   1
  -8  -2  -3 9470.79 109.655  -2
  -4   2  -7 9470.79 109.655   1
   4  -2   8 95274.0 241.572   1
 -10   2  -3 19371.4 141.255  -2
  -4  -2  -9 19371.4 141.255   1
  -4   2 -10 1466.05 44.3018   1
 -12   2  -3 23860.4 151.459  -2
  -4  -2 -11 23860.4 151.459   1
  -4  -2 -12 5913.88 89.1894   1
 -14   2  -3 1895.38 112.013  -2
  -4  -2 -13 1895.38 112.013   1
  -4  -2 -14 5442.41 105.393   1
   4  -2  15 1992.95 95.7893   1
 -16  -2  -3 22476.6 494.308  -2
  -4   2 -15 22476.6 494.308   1
  -4  -2 -16 8622.37 155.156   1
  18   2   2 21438.9 314.751  -2
   4  -2  16 21438.9 314.751   1
   4  -2  17 8280.39 142.729   1
  20  -2   2 1315.73 178.711  -2
   4   2  18 1315.73 178.711   1
   4   2  19 18751.1 141.577   1
 -22  -2  -2 166.858 95.3474  -2
  -4   2 -20 166.858 95.3474   1
  -4  -2 -21 6800.04 96.2857   1
  24  -2   2 3799.23 101.665  -2
   4   2  22 3799.23 101.665   1
   4   2  23 538.629 89.6682   1
  26  -2   2 635.170 118.514  -2
   4   2  24 635.170 118.514   1
  -4  -2 -25 2841.21 103.688   1
  28  -2   2 6038.42 147.874  -2
   4   2  26 6038.42 147.874   1
   4   2  27 2285.27 129.543   1
   4  -2  28 386.114 143.798   1
  30  -2   2 1346.81 218.461  -2
   4   2  28 1346.81 218.461   1
   4  -2  29 2967.10 132.540   1
 -32   2  -1 3222.57 375.748  -2
  -4  -2 -29 3222.57 375.748   1
   4   2  30 11.5968 142.902   1
  34  -2   1 38.7010 245.797  -2
   4   2  31 38.7010 245.797   1
  -4   2 -32 83.7287 145.973   1
 -36  -2  -1 336.408 170.686  -2
  -4   2 -33 336.408 170.686   1
  -4   2 -34 710.955 126.416   1
 -38  -2  -1 1084.96 167.046  -2
  -4   2 -35 1084.96 167.046   1
  -4  -2 -36 64.3565 159.520   1
   4  -4 -36 135.765 167.839   1
   4  -4 -35 96.5888 135.740   1
 -36  -4   6 1347.92 210.040  -2
   4   4 -34 1347.92 210.040   1
   4  -4 -33 133.179 104.065   1
 -34  -4   6 727.970 171.145  -2
   4   4 -32 727.970 171.145   1
   4   4 -31 73.4174 130.940   1
  32  -4  -6 3281.06 204.975  -2
  -4   4  30 3281.06 204.975   1
   4   4 -29 302.917 141.920   1
  30  -4  -6 972.480 190.402  -2
  -4   4  28 972.480 190.402   1
   4   4 -27 975.275 130.790   1
 -28   4   6 669.260 169.115  -2
   4  -4 -26 669.260 169.115   1
   4  -4 -25 124.189 124.341   1
   4  -4 -24 304.726 140.191   1
 -26  -4   6 724.159 241.674  -2
   4   4 -24 724.159 241.674   1
  -4   4  23 2366.50 149.160   1
  24   4  -5 2776.30 222.430  -2
  -4  -4  23 2776.30 222.430   1
  -4   4  22 93.2705 85.0474   1
  22   4  -5 1738.55 155.052  -2
  -4  -4  21 1738.55 155.052   1
   4  -4 -20 6931.45 148.152   1
  20  -4  -5 1222.38 141.956  -2
  -4   4  19 1222.38 141.956   1
   4  -4 -18 238.710 218.018   1
 -18   4   5 11101.7 436.504  -2
   4  -4 -17 11101.7 436.504   1
   4  -4 -16 26818.7 325.568   1
 -16   4   5 471.998 219.728  -2
   4  -4 -15 471.998 219.728   1
  -4   4  14 69126.4 369.487   1
 -14   4   5 23555.0 329.413  -2
   4  -4 -13 23555.0 329.413   1
   4  -4 -12 34007.2 255.786   1
   4  -4 -11 3473.59 230.229   1
 -12   4   5 4447.06 214.604  -2
   4  -4 -11 4447.06 214.604   1
   4  -4 -10 1646.97 191.635   1
 -10   4   4 49762.9 329.916  -2
   4  -4 -10 49762.9 329.916   1
  -4   4   9 1915.22 107.062   1
  -8   4   4 8308.36 274.481  -2
   4  -4  -8 8308.36 274.481   1
   4  -4  -7 14478.0 166.205   1
  -6  -4   4 68574.9 366.759  -2
   4   4  -6 68574.9 366.759   1
   4  -4  -5 4747.50 112.504   1
  -4   4   4 53901.3 146.806  -2
   4  -4  -4 53901.3 146.806   1
   4   4  -3 133.883 86.6031   1
  -2   4   4 28677.5 218.793  -2
   4  -4  -2 28677.5 218.793   1
   4   4  -1 1110.63 73.6574   1
   4   4   0 4464.64 108.698   1
   4   4   1 32188.4 188.197   1
   4   4   2 1973.46 79.9543   1
  -4   4  -3 110.761 64.7566   1
  -4   4  -4 27987.2 210.887   1
  -4   4  -5 9075.99 119.678   1
  -6  -4  -3 16084.4 197.580  -2
  -4   4  -5 16084.4 197.580   1
   4   4   6 15773.1 99.5129   1
   8  -4   3 3406.95 132.354  -2
   4   4   7 3406.95 132.354   1
   4   4   8 8777.17 136.131   1
 -10   4  -3 58665.5 364.577  -2
  -4  -4  -9 58665.5 364.577   1
  -4   4 -10 1425.13 77.9068   1
  12   4   3 25883.6 193.079  -2
   4  -4  11 25883.6 193.079   1
   4  -4  12 565.874 79.9622   1
 -14  -4  -3 9773.88 186.425  -2
  -4   4 -13 9773.88 186.425   1
  -4  -4 -14 2483.39 127.236   1
 -16   4  -3 6969.92 156.675  -2
  -4  -4 -15 6969.92 156.675   1
  -4  -4 -16 32617.0 553.941   1
 -18  -4  -2 32639.3 274.417  -2
  -4   4 -16 32639.3 274.417   1
   4   4  17 518.433 84.5505   1
  20  -4   2 8569.62 149.206  -2
   4   4  18 8569.62 149.206   1
   4   4  19 210.543 89.4527   1
  22  -4   2 9874.77 159.594  -2
   4   4  20 9874.77 159.594   1
   4   4  21-0.08633 95.1214   1
 -24   4  -2 6540.56 171.641  -2
  -4  -4 -22 6540.56 171.641   1
   4   4  23 329.311 110.231   1
  26  -4   2 5216.51 168.317  -2
   4   4  24 5216.51 168.317   1
   4   4  25 349.477 122.964   1
  28  -4   2 365.934 160.903  -2
   4   4  26 365.934 160.903   1
   4   4  27 30.5542 143.209   1
   4   4  28 4152.91 239.426   1
  30  -4   2 5380.04 303.717  -2
   4   4  28 5380.04 303.717   1
   4   4  29 229.398 197.401   1
 -32  -4  -1 41.3948 106.137  -2
  -4   4 -29 41.3948 106.137   1
  -4   4 -30 1554.95 135.667   1
 -34  -4  -1 1109.85 181.010  -2
  -4   4 -31 1109.85 181.010   1
   4   4  32 234.516 179.065   1
  36  -4   1 263.226 212.217  -2
   4   4  33 263.226 212.217   1
   4   4  34 14.3359 149.768   1
 -38   4  -1 554.036 224.949  -2
  -4  -4 -35 554.036 224.949   1
  -4   6  34-12.3604 120.005   1
 -36   6   6 40.8502 221.794  -2
   4  -6 -34 40.8502 221.794   1
  -4   6  33 581.427 116.454   1
 -34   6   6 541.155 163.020  -2
   4  -6 -32 541.155 163.020   1
   4   6 -31 1385.34 138.781   1
  32  -6  -6 99.6001 176.445  -2
  -4   6  30 99.6001 176.445   1
  -4   6  29 303.962 143.379   1
  30  -6  -6 182.860 187.284  -2
  -4   6  28 182.860 187.284   1
  -4   6  27 12.6962 143.982   1
 -28  -6   6 328.020 172.880  -2
   4   6 -26 328.020 172.880   1
   4  -6 -25 179.163 134.725   1
  -4   6  24 1475.73 190.669   1
 -26   6   6 1287.36 258.943  -2
   4  -6 -24 1287.36 258.943   1
  -4   6  23 979.657 184.552   1
 -24  -6   5 1129.56 246.027  -2
   4   6 -23 1129.56 246.027   1
   4  -6 -22 208.795 176.101   1
 -22  -6   5 562.600 232.563  -2
   4   6 -21 562.600 232.563   1
   4  -6 -20 8527.02 220.929   1
 -20  -6   5 5775.51 180.238  -2
   4   6 -19 5775.51 180.238   1
  -4   6  18 333.778 133.761   1
 -18   6   5 10427.9 233.575  -2
   4  -6 -17 10427.9 233.575   1
   4  -6 -16 636.307 237.155   1
 -16   6   5 3905.81 353.651  -2
   4  -6 -15 3905.81 353.651   1
   4  -6 -14 14900.6 367.920   1
 -14   6   5 5266.73 334.122  -2
   4  -6 -13 5266.73 334.122   1
   4  -6 -12 356.724 207.385   1
 -12   6   5 34685.3 485.994  -2
   4  -6 -11 34685.3 485.994   1
 -10   6   4 15962.7 372.054  -2
   4  -6 -10 15962.7 372.054   1
   4  -6  -9 747.795 125.588   1
  -8  -6   4 73537.3 420.724  -2
   4   6  -8 73537.3 420.724   1
   4   6  -7 356.641 113.943   1
  -6   6   4 35637.8 343.798  -2
   4  -6  -6 35637.8 343.798   1
   4   6  -5 2755.74 132.772   1
  -4  -6   4 50672.4 418.661  -2
   4   6  -4 50672.4 418.661   1
   4  -6  -3 28736.7 250.255   1
  -2  -6   4 106370. 456.920  -2
   4   6  -2 106370. 456.920   1
  -4   6   1 2054.21 96.5777   1
   4   6   0 22298.2 313.539   1
   0  -6  -4 20766.6 282.229  -2
  -4   6   0 20766.6 282.229   1
   4   6   1 495.254 101.930   1
  -4   6  -2 2067.04 112.161   1
   4   6   3 38048.3 239.975   1
   4   6   4 689.697 196.456   1
   6  -6   3 28597.5 233.228  -2
   4   6   5 28597.5 233.228   1
   4   6   6 1457.53 94.9371   1
   8  -6   3 3248.78 132.624  -2
   4   6   7 3248.78 132.624   1
   4   6   8 6490.10 263.720   1
  10  -6   3 24446.4 545.017  -2
   4   6   9 24446.4 545.017   1
   4   6  10 17462.9 387.215   1
  12  -6   3 21597.2 518.089  -2
   4   6  11 21597.2 518.089   1
  -4  -6 -12 418.860 131.944   1
  14  -6   3 5166.12 334.763  -2
   4   6  13 5166.12 334.763   1
   4   6  14 875.277 119.380   1
 -16   6  -3 8757.37 266.822  -2
  -4  -6 -15 8757.37 266.822   1
  -4  -6 -16 13107.3 384.165   1
  18  -6   2 11890.7 172.447  -2
   4   6  16 11890.7 172.447   1
   4   6  17 1713.03 99.6726   1
  20  -6   2 5491.81 154.120  -2
   4   6  18 5491.81 154.120   1
   4   6  19 10975.1 147.471   1
 -22   6  -2 6849.54 179.211  -2
  -4  -6 -20 6849.54 179.211   1
   4   6  21 6175.25 151.734   1
  24  -6   2 1660.82 198.749  -2
   4   6  22 1660.82 198.749   1
   4   6  23 116.677 147.983   1
  26  -6   2 2556.71 208.960  -2
   4   6  24 2556.71 208.960   1
   4   6  25 2286.49 164.267   1
  28  -6   2 1009.65 196.276  -2
   4   6  26 1009.65 196.276   1
   4   6  27 489.435 147.612   1
   4   6  28 1361.61 209.552   1
   4   6  29 461.831 204.335   1
 -32   6  -1 1154.42 389.311  -2
  -4  -6 -29 1154.42 389.311   1
   4   6  30 524.884 162.644   1
  34  -6   1 281.218 221.423  -2
   4   6  31 281.218 221.423   1
   4   6  32 132.169 165.529   1
  36  -6   1 85.9424 187.093  -2
   4   6  33 85.9424 187.093   1
  -4   8  33 92.3646 114.095   1
  34  -8  -6 164.849 176.837  -2
  -4   8  32 164.849 176.837   1
  -4   8  31 44.1494 140.774   1
  32  -8  -6 803.620 207.363  -2
  -4   8  30 803.620 207.363   1
  -4   8  29 98.6031 170.995   1
  30  -8  -6 314.035 230.454  -2
  -4   8  28 314.035 230.454   1
  -4   8  27 290.928 183.507   1
  28  -8  -6 2040.34 256.603  -2
  -4   8  26 2040.34 256.603   1
  -4   8  25 368.475 164.986   1
  -4   8  24 142.543 196.057   1
 -26   8   6 468.697 413.972  -2
   4  -8 -24 468.697 413.972   1
  -4   8  23 779.408 198.315   1
 -24   8   5 1585.49 426.478  -2
   4  -8 -23 1585.49 426.478   1
   4  -8 -22-59.8344 295.639   1
  22  -8  -5 3858.49 255.849  -2
  -4   8  21 3858.49 255.849   1
  -4   8  20 49.4475 164.950   1
 -20   8   5 570.722 265.519  -2
   4  -8 -19 570.722 265.519   1
   4  -8 -18 248.555 206.759   1
  18  -8  -5 11777.2 400.446  -2
  -4   8  17 11777.2 400.446   1
  -4   8  16 227.842 188.639   1
 -16   8   5 4257.91 299.566  -2
   4  -8 -15 4257.91 299.566   1
   4  -8 -14 9164.28 272.693   1
 -14   8   5 23241.1 564.117  -2
   4  -8 -13 23241.1 564.117   1
   4  -8 -12 165.580 170.394   1
 -12   8   5 4987.53 343.438  -2
   4  -8 -11 4987.53 343.438   1
 -10   8   4 20246.8 337.491  -2
   4  -8 -10 20246.8 337.491   1
  -4   8   9 1629.84 116.818   1
  -8   8   4 762.212 139.474  -2
   4  -8  -8 762.212 139.474   1
   4   8  -7 4482.84 135.703   1
   6  -8  -4 12659.1 270.163  -2
  -4   8   6 12659.1 270.163   1
  -4   8   5 525.317 115.855   1
   4  -8  -4 2871.48 59.4539  -2
  -4   8   4 2871.48 59.4539   1
   4   8  -3 17991.8 240.793   1
   2  -8  -4 31329.0 382.148  -2
  -4   8   2 31329.0 382.148   1
  -4   8   1 11380.0 201.165   1
   0  -8  -4 58891.8 344.909  -2
  -4   8   0 58891.8 344.909   1
   4   8   1 49365.0 283.660   1
  -2  -8  -4 77494.4 396.901  -2
  -4   8  -2 77494.4 396.901   1
  -4   8  -3 5963.21 183.362   1
   4  -8   3 13091.4 347.348  -2
   4   8   3 13091.4 347.348   1
  -4   8  -4 18.3889 100.937   1
   6  -8   3 22549.3 282.933  -2
   4   8   5 22549.3 282.933   1
   4   8   6 1325.22 215.059   1
   8  -8   3 13264.1 469.254  -2
   4   8   7 13264.1 469.254   1
   4   8   8 42053.1 576.171   1
  10  -8   3 9012.88 143.409  -2
   4   8   9 9012.88 143.409   1
   4   8  10 10927.1 365.892   1
  12  -8   3 17093.6 570.406  -2
   4   8  11 17093.6 570.406   1
   4   8  12 1923.65 296.555   1
  14  -8   3 12272.2 509.536  -2
   4   8  13 12272.2 509.536   1
   4   8  14 2246.39 293.266   1
  16  -8   3 7609.66 208.101  -2
   4   8  15 7609.66 208.101   1
  18  -8   2 4494.37 193.347  -2
   4   8  16 4494.37 193.347   1
   4   8  17 2349.81 123.418   1
  20  -8   2 1988.15 162.909  -2
   4   8  18 1988.15 162.909   1
   4   8  19 291.608 122.307   1
  22  -8   2 1901.44 193.294  -2
   4   8  20 1901.44 193.294   1
   4   8  21 223.163 143.044   1
  24  -8   2 2357.95 201.078  -2
   4   8  22 2357.95 201.078   1
   4   8  23 97.3530 140.133   1
  26  -8   2 757.252 189.472  -2
   4   8  24 757.252 189.472   1
   4   8  25 12.4401 205.848   1
  28  -8   2 1768.34 274.208  -2
   4   8  26 1768.34 274.208   1
   4   8  27 629.421 165.623   1
   4   8  28 18.3969 183.860   1
 -30   8  -2 410.609 378.878  -2
  -4  -8 -28 410.609 378.878   1
   4   8  29 13.0894 176.963   1
   4   8  30-2.15731 164.307   1
  34  -8   1 1509.03 193.942  -2
   4   8  31 1509.03 193.942   1
   4   8  32 81.6944 126.856   1
  -4  10  31 81.0012 107.358   1
  32 -10  -6 467.818 159.879  -2
  -4  10  30 467.818 159.879   1
  -4  10  29 8.92115 135.610   1
  30 -10  -6 1031.37 197.455  -2
  -4  10  28 1031.37 197.455   1
  -4  10  27 14.0763 162.135   1
  28 -10  -6 46.8128 215.511  -2
  -4  10  26 46.8128 215.511   1
  -4  10  25 1195.79 189.918   1
  -4  10  24 591.855 184.330   1
  -4  10  23 2245.67 204.622   1
 -22  10   5 1100.31 374.368  -2
   4 -10 -21 1100.31 374.368   1
   4 -10 -20 1806.03 305.705   1
 -20  10   5 2380.52 383.855  -2
   4 -10 -19 2380.52 383.855   1
   4 -10 -18 247.287 283.375   1
 -18  10   5 17507.1 133.581  -2
   4 -10 -17 17507.1 133.581   1
  -4  10  16 9151.75 254.673   1
  16 -10  -5 2122.04 447.078  -2
  -4  10  15 2122.04 447.078   1
  -4  10  14 133.201 307.996   1
  14 -10  -5 3563.30 458.987  -2
  -4  10  13 3563.30 458.987   1
  -4  10  12 2391.00 353.140   1
  12 -10  -5 17672.7 567.917  -2
  -4  10  11 17672.7 567.917   1
  10 -10  -4 1825.81 374.246  -2
  -4  10  10 1825.81 374.246   1
   4  10  -9 273.666 140.970   1
  -8 -10   4 16433.1 323.282  -2
   4  10  -8 16433.1 323.282   1
   4  10  -7 5471.45 192.579   1
  -6 -10   4 13149.7 316.156  -2
   4  10  -6 13149.7 316.156   1
   4  10  -5 1295.06 136.990   1
   4 -10  -4 4373.62 67.2629  -2
  -4  10   4 4373.62 67.2629   1
   4  10  -3 341.382 129.698   1
  -2 -10   4 12554.7 302.316  -2
   4  10  -2 12554.7 302.316   1
   4  10  -1 140.417 122.446   1
   0 -10   4 18810.3 322.021  -2
   4  10   0 18810.3 322.021   1
   4  10   1 4154.28 170.500   1
   2 -10   4 67754.4 485.502  -2
   4  10   2 67754.4 485.502   1
   4 -10   3 155.861 190.367  -2
   4  10   3 155.861 190.367   1
   4  10   4 199.102 147.259   1
   6 -10   3 13715.1 491.428  -2
   4  10   5 13715.1 491.428   1
   4  10   6 6081.38 310.168   1
   8 -10   3 3791.70 380.307  -2
   4  10   7 3791.70 380.307   1
   4  10   8 39206.9 623.556   1
  10 -10   3 22558.4 207.244  -2
   4  10   9 22558.4 207.244   1
   4  10  10 1441.53 273.832   1
  12 -10   3 4813.08 446.579  -2
   4  10  11 4813.08 446.579   1
   4  10  12 1152.44 293.774   1
  14 -10   3 4836.39 424.007  -2
   4  10  13 4836.39 424.007   1
   4  10  14 1267.58 289.879   1
  16 -10   3 603.447 372.057  -2
   4  10  15 603.447 372.057   1
   4  10  17 2036.10 219.732   1
  20 -10   2 500.964 271.787  -2
   4  10  18 500.964 271.787   1
   4  10  19 25.0501 207.318   1
  22 -10   2 56.7303 268.900  -2
   4  10  20 56.7303 268.900   1
   4  10  21 2121.83 219.298   1
  24 -10   2 1911.63 279.214  -2
   4  10  22 1911.63 279.214   1
   4  10  23-0.62571 189.310   1
  26 -10   2 539.044 246.068  -2
   4  10  24 539.044 246.068   1
  -4 -10 -25 33.9709 148.095   1
  28 -10   2 1625.74 194.073  -2
   4  10  26 1625.74 194.073   1
   4  10  27 159.666 156.917   1
   4  10  28 141.681 148.392   1
   4  10  29 30.8247 127.980   1
   4  10  30 109.020 112.535   1
  30 -12  -6 1102.20 136.851  -2
  -4  12  28 1102.20 136.851   1
  -4  12  27 758.406 123.458   1
  28 -12  -6 1158.63 170.506  -2
  -4  12  26 1158.63 170.506   1
  -4  12  25 147.225 144.647   1
  -4  12  24 1043.24 161.875   1
  -4  12  23 184.070 162.886   1
  -4  12  22 1419.73 183.751   1
  22 -12  -5 2857.01 251.683  -2
  -4  12  21 2857.01 251.683   1
  -4  12   9 2528.43 341.253   1
   8 -12  -4 7189.72 480.727  -2
  -4  12   8 7189.72 480.727   1
  -4  12   7 182.018 299.594   1
   6 -12  -4 1638.66 426.726  -2
  -4  12   6 1638.66 426.726   1
   4  12  -5 5763.09 236.710   1
  -4 -12   4 10536.5 479.404  -2
   4  12  -4 10536.5 479.404   1
   4  12  -3 6234.75 227.537   1
   2 -12  -4 11266.1 349.667  -2
  -4  12   2 11266.1 349.667   1
   4  12  -1 4649.06 214.286   1
   0 -12   4 2912.59 326.955  -2
   4  12   0 2912.59 326.955   1
   4  12   1 3647.87 284.114   1
   2 -12   4 1546.92 324.797  -2
   4  12   2 1546.92 324.797   1
   4 -12   3 8765.54 415.021  -2
   4  12   3 8765.54 415.021   1
   4  12   4 193.061 238.490   1
   6 -12   3 7771.71 471.315  -2
   4  12   5 7771.71 471.315   1
   4  12   6 3245.03 307.271   1
   8 -12   3 14387.1 597.791  -2
   4  12   7 14387.1 597.791   1
   4  12   8 4095.21 240.012   1
   4  12  14 9580.27 260.171   1
  16 -12   3 4181.59 274.461  -2
   4  12  15 4181.59 274.461   1
  18 -12   2 6982.69 299.125  -2
   4  12  16 6982.69 299.125   1
   4  12  17 328.774 203.490   1
  20 -12   2 1042.22 253.980  -2
   4  12  18 1042.22 253.980   1
  -4 -12 -19 284.905 148.556   1
  22 -12   2 1292.19 202.944  -2
   4  12  20 1292.19 202.944   1
  -4 -12 -21 769.264 148.657   1
 -24  12  -2 2230.26 194.848  -2
  -4 -12 -22 2230.26 194.848   1
   4  12  23 36.4526 153.435   1
  26 -12   2 991.595 192.978  -2
   4  12  24 991.595 192.978   1
   4  12  25 1775.98 146.451   1
  28 -12   2 144.424 156.857  -2
   4  12  26 144.424 156.857   1
  -4  14  23 253.141 107.380   1
  -4  14  22 238.225 126.143   1
  22 -14  -5 857.110 179.376  -2
  -4  14  21 857.110 179.376   1
  -4  14  20 793.247 151.586   1
  20 -14  -5 279.782 201.204  -2
  -4  14  19 279.782 201.204   1
  -4  14  18 891.127 163.843   1
   4  14  14 402.372 155.785   1
  18 -14   2 1188.94 198.838  -2
   4  14  16 1188.94 198.838   1
   4  14  17 778.695 149.893   1
   5  -1 -37 150.178 126.185   1
   5  -1 -36 102.145 147.676   1
 -37  -1   7 1838.84 230.115  -2
   5   1 -35 1838.84 230.115   1
   5  -1 -34 37.4290 175.744   1
 -35   1   7 403.054 256.700  -2
   5  -1 -33 403.054 256.700   1
   5   1 -32 270.547 201.823   1
 -33  -1   7 2147.92 407.781  -2
   5   1 -31 2147.92 407.781   1
   5   1 -30-21.7293 301.184   1
  -5  -1  26 4249.16 235.696   1
  -5  -1  25-138.236 136.510   1
  27  -1  -7 4322.29 411.004  -2
  -5   1  25 4322.29 411.004   1
  -5   1  24 1583.55 169.473   1
  25  -1  -6 4985.96 270.997  -2
  -5   1  24 4985.96 270.997   1
   5  -1 -23 5004.45 132.263   1
  23   1  -6 2101.07 192.582  -2
  -5  -1  22 2101.07 192.582   1
  -5   1  21 21262.5 229.592   1
  21  -1  -6 10151.5 317.445  -2
  -5   1  20 10151.5 317.445   1
  -5  -1  19 11173.9 244.809   1
  19   1  -6 18640.9 368.230  -2
  -5  -1  18 18640.9 368.230   1
  -5  -1  17 492.894 171.553   1
  17   1  -6 387.802 215.591  -2
  -5  -1  16 387.802 215.591   1
  -5  -1  15 27664.5 302.769   1
  15  -1  -6 23691.6 206.558  -2
  -5   1  14 23691.6 206.558   1
  -5   1  13 3524.50 112.645   1
   5   1 -12 4695.98 132.918   1
  13  -1  -6 6304.98 152.191  -2
  -5   1  12 6304.98 152.191   1
 -11  -1   5 3788.87 99.6044  -2
   5   1 -11 3788.87 99.6044   1
   5   1 -10 32743.3 165.161   1
  -9   1   5 4983.33 114.516  -2
   5  -1  -9 4983.33 114.516   1
  -5   1   8 22747.6 145.202   1
  -7   1   5 5886.78 143.650  -2
   5  -1  -7 5886.78 143.650   1
   5  -1  -6 2426.35 96.4234   1
  -5  -1   5 62218.1 309.427  -2
   5   1  -5 62218.1 309.427   1
   5   1  -4 224890. 419.339   1
  -3   1   5 169698. 418.911  -2
   5  -1  -3 169698. 418.911   1
   5  -1  -2 23611.9 146.997   1
   5   1  -1 10246.8 142.362   1
  -1   1   5 49134.8 292.738  -2
   5  -1  -1 49134.8 292.738   1
   5   1   0 40808.2 169.275   1
   5  -1   1 6041.53 54.1577   1
   5   1   2 67343.1 145.917   1
   5  -1   3 3475.71 50.3847   1
   5  -1   4 13004.9 92.8203   1
   5  -1   4 24741.2 209.814  -2
   5   1   4 24741.2 209.814   1
   5   1   5 1657.38 47.0264   1
   5  -1   6 29662.6 128.638   1
   7  -1   4 68351.9 171.639  -2
   5   1   6 68351.9 171.639   1
   5  -1   7 42381.9 94.2056   1
   9   1   4 1584.40 16.7712  -2
   5  -1   8 1584.40 16.7712   1
  -5  -1  -9 28608.4 66.4626   1
 -11  -1  -4 4871.39 63.2391  -2
  -5   1 -10 4871.39 63.2391   1
  -5   1 -11 2274.93 50.6379   1
  -5   1 -12 8952.13 196.039   1
  13   1   4 10617.0 97.6424  -2
   5  -1  12 10617.0 97.6424   1
  -5  -1 -13 42077.6 136.677   1
  -5   1 -14 847.439 99.9113   1
  15  -1   4 16949.0 270.704  -2
   5   1  14 16949.0 270.704   1
  -5   1 -15 4748.54 220.648   1
  17  -1   3 30160.5 351.159  -2
   5   1  15 30160.5 351.159   1
  -5   1 -16 10502.1 178.658   1
  19  -1   3 953.223 149.333  -2
   5   1  17 953.223 149.333   1
  -5   1 -18 12718.8 305.847   1
 -21  -1  -3 1378.38 108.524  -2
  -5   1 -19 1378.38 108.524   1
   5   1  20 1715.67 77.6992   1
  23  -1   3 1101.50 42.8288  -2
   5   1  21 1101.50 42.8288   1
   5  -1  22 177.936 80.0275   1
 -25  -1  -3 353.336 97.3435  -2
  -5   1 -23 353.336 97.3435   1
  -5   1 -24 168.967 89.2833   1
  27   1   3 940.072 127.672  -2
   5  -1  25 940.072 127.672   1
   5  -1  26 316.980 98.7776   1
   5   1  27 1117.79 163.143   1
  29  -1   3 1307.85 177.926  -2
   5   1  27 1307.85 177.926   1
   5  -1  28 1387.87 229.252   1
  31  -1   2 1536.83 164.521  -2
   5   1  28 1536.83 164.521   1
   5   1  29 1012.54 107.396   1
  33  -1   2 654.657 189.318  -2
   5   1  30 654.657 189.318   1
   5   1  31 1871.98 149.121   1
  35   1   2 548.300 171.718  -2
   5  -1  32 548.300 171.718   1
   5   1  33 782.509 108.477   1
 -37  -1  -2 516.795 161.600  -2
  -5   1 -34 516.795 161.600   1
  -5  -1 -35 2224.54 131.135   1
   5  -3 -36 100.389 133.024   1
 -37   3   7 380.458 201.766  -2
   5  -3 -35 380.458 201.766   1
   5  -3 -34 1.08653 168.770   1
 -35  -3   7 22.2204 121.811  -2
   5   3 -33 22.2204 121.811   1
   5  -3 -32 422.394 119.747   1
 -33  -3   7 216.007 170.011  -2
   5   3 -31 216.007 170.011   1
   5   3 -30-23.1584 130.280   1
  31  -3  -7 894.564 183.778  -2
  -5   3  29 894.564 183.778   1
   5   3 -28 281.368 140.324   1
  29  -3  -7 875.224 181.619  -2
  -5   3  27 875.224 181.619   1
  -5   3  26 4066.16 159.350   1
  -5   3  25 166.684 123.683   1
 -27  -3   7 892.263 348.604  -2
   5   3 -25 892.263 348.604   1
  -5   3  24 1075.39 139.967   1
  25   3  -6 3583.31 237.549  -2
  -5  -3  24 3583.31 237.549   1
   5  -3 -23 261.708 104.559   1
  23   3  -6 5571.45 138.649  -2
  -5  -3  22 5571.45 138.649   1
  -5  -3  21 572.920 80.7597   1
  21   3  -6 10040.9 205.780  -2
  -5  -3  20 10040.9 205.780   1
  -5   3  19 1378.14 121.229   1
  19  -3  -6 45274.0 522.562  -2
  -5   3  18 45274.0 522.562   1
  -5   3  17 7498.66 339.146   1
  17  -3  -6 41639.5 703.482  -2
  -5   3  16 41639.5 703.482   1
  -5   3  15 1226.41 111.044   1
  15  -3  -6 17025.3 215.688  -2
  -5   3  14 17025.3 215.688   1
   5   3 -13 1020.80 114.152   1
   5   3 -12 578.440 131.840   1
  13  -3  -6 5011.51 328.589  -2
  -5   3  12 5011.51 328.589   1
  11  -3  -5 8160.19 325.802  -2
  -5   3  11 8160.19 325.802   1
  -5   3  10 6983.28 252.792   1
   9  -3  -5 30045.8 413.716  -2
  -5   3   9 30045.8 413.716   1
  -5   3   8 182.804 173.768   1
   7  -3  -5 15365.9 332.839  -2
  -5   3   7 15365.9 332.839   1
  -5   3   6 31816.6 211.413   1
   5  -3  -5 33192.8 224.338  -2
  -5   3   5 33192.8 224.338   1
  -5   3   4 6764.62 77.8756   1
   3   3  -5 32039.9 151.277  -2
  -5  -3   3 32039.9 151.277   1
   5   3  -2 51495.6 187.042   1
   5  -3  -1 108413. 316.062   1
   1   3  -5 108100. 462.509  -2
  -5  -3   1 108100. 462.509   1
   5   3   0 280.550 58.8474   1
   5   3   1 43171.9 189.856   1
  -5  -3  -2 40337.7 239.654   1
  -5   3  -3 36273.7 112.760   1
   5   3   4 29465.3 296.600   1
  -5  -3  -4 50595.8 347.067  -2
  -5   3  -4 50595.8 347.067   1
   5  -3   5 52894.2 90.8916   1
   7   3   4 70236.1 171.094  -2
   5  -3   6 70236.1 171.094   1
   5   3   7 5386.13 64.6401   1
   9   3   4 38707.8 107.515  -2
   5  -3   8 38707.8 107.515   1
   5   3   9 297.341 57.7336   1
 -11  -3  -4 46674.1 207.801  -2
  -5   3 -10 46674.1 207.801   1
   5   3  11 341.737 47.8699   1
  -5   3 -12 1470.96 123.158   1
  13   3   4 32123.0 166.204  -2
   5  -3  12 32123.0 166.204   1
  -5  -3 -13 33769.1 174.364   1
  -5  -3 -14 241.154 120.472   1
 -15  -3  -4 995.701 192.283  -2
  -5   3 -14 995.701 192.283   1
  -5  -3 -15 27147.0 494.832   1
 -17   3  -3 25040.9 214.662  -2
  -5  -3 -15 25040.9 214.662   1
  -5   3 -16 1810.84 148.600   1
  19  -3   3 11595.9 250.987  -2
   5   3  17 11595.9 250.987   1
   5   3  18 3407.39 94.8735   1
  21   3   3 2925.18 103.152  -2
   5  -3  19 2925.18 103.152   1
   5   3  20 267.891 82.5157   1
  23   3   3 1847.99 132.899  -2
   5  -3  21 1847.99 132.899   1
  -5  -3 -22 928.834 106.414   1
  25   3   3 415.667 143.497  -2
   5  -3  23 415.667 143.497   1
  -5  -3 -24 125.869 110.522   1
  27  -3   3 1838.91 159.770  -2
   5   3  25 1838.91 159.770   1
   5   3  26 45.1868 124.367   1
   5  -3  27 20.3028 152.027   1
  29  -3   3 933.765 268.884  -2
   5   3  27 933.765 268.884   1
   5  -3  28 158.788 212.689   1
  31  -3   2 340.466 168.601  -2
   5   3  28 340.466 168.601   1
   5  -3  29 101.254 109.473   1
   5  -3  30 497.532 202.910   1
  33  -3   2 1033.60 207.106  -2
   5   3  30 1033.60 207.106   1
  -5   3 -31 123.968 141.119   1
 -35  -3  -2 2671.92 188.510  -2
  -5   3 -32 2671.92 188.510   1
  -5   3 -33 40.5493 123.581   1
  37  -3   2 1365.22 204.769  -2
   5   3  34 1365.22 204.769   1
  -5  -3 -35-26.9477 175.713   1
 -37   5   7 474.810 230.812  -2
   5  -5 -35 474.810 230.812   1
   5  -5 -34-4.59915 91.1607   1
  35  -5  -7 232.737 90.8151  -2
  -5   5  33 232.737 90.8151   1
  -5   5  32 76.2572 103.176   1
 -33  -5   7 4.96692 167.663  -2
   5   5 -31 4.96692 167.663   1
  -5   5  30 361.027 140.121   1
  31  -5  -7 170.208 180.441  -2
  -5   5  29 170.208 180.441   1
   5   5 -28 844.256 146.180   1
 -29  -5   7 1743.16 192.338  -2
   5   5 -27 1743.16 192.338   1
   5  -5 -26 520.230 131.906   1
  -5   5  25 1120.15 181.874   1
 -27   5   7 4285.09 265.312  -2
   5  -5 -25 4285.09 265.312   1
  -5   5  24 967.019 178.481   1
 -25   5   6 5420.95 225.272  -2
   5  -5 -24 5420.95 225.272   1
  -5   5  23 47.9234 113.034   1
  23   5  -6 174.008 153.331  -2
  -5  -5  22 174.008 153.331   1
   5   5 -21 2457.39 144.798   1
  21   5  -6 349.022 163.092  -2
  -5  -5  20 349.022 163.092   1
  -5   5  19 9141.00 144.998   1
 -19   5   6 4292.64 63.4036  -2
   5  -5 -18 4292.64 63.4036   1
   5  -5 -17 1128.46 239.818   1
 -17   5   6 17731.5 497.557  -2
   5  -5 -16 17731.5 497.557   1
   5  -5 -15 2325.96 237.508   1
 -15   5   6 5615.19 346.067  -2
   5  -5 -14 5615.19 346.067   1
   5  -5 -13 15700.2 350.924   1
 -13   5   6 3566.91 317.771  -2
   5  -5 -12 3566.91 317.771   1
 -11   5   5 8517.86 317.797  -2
   5  -5 -11 8517.86 317.797   1
   5  -5 -10 2515.09 232.092   1
  -9   5   5 66461.7 647.552  -2
   5  -5  -9 66461.7 647.552   1
   5  -5  -8 206.309 109.418   1
  -7  -5   5 17922.1 254.102  -2
   5   5  -7 17922.1 254.102   1
   5   5  -6 902.079 110.793   1
  -5  -5   5 29029.2 115.193  -2
   5   5  -5 29029.2 115.193   1
   5   5  -4 48542.2 290.369   1
  -3   5   5 22617.6 258.597  -2
   5  -5  -3 22617.6 258.597   1
   5   5  -2 4360.14 126.176   1
   5  -5  -1 3255.27 162.398   1
  -1  -5   5 6532.00 228.474  -2
   5   5  -1 6532.00 228.474   1
   5   5   0 160.200 105.155   1
   5   5   1 11591.4 145.427   1
  -5   5  -2 4262.36 106.034   1
  -5   5  -3 9471.20 121.615   1
  -5   5  -4 319.044 75.7137   1
   5  -5   4 561.254 205.759  -2
   5   5   4 561.254 205.759   1
  -5   5  -5 2808.63 88.0733   1
   7  -5   4 13587.3 163.448  -2
   5   5   6 13587.3 163.448   1
   5   5   7 2269.08 155.690   1
   9  -5   4 13287.3 299.168  -2
   5   5   8 13287.3 299.168   1
   5   5   9 15649.5 254.013   1
  11  -5   4 19228.3 360.034  -2
   5   5  10 19228.3 360.034   1
   5   5  11 3448.38 129.954   1
  13  -5   4 17020.8 224.903  -2
   5   5  12 17020.8 224.903   1
   5   5  13 48920.7 344.240   1
  15  -5   4 1008.83 155.350  -2
   5   5  14 1008.83 155.350   1
  -5  -5 -15 14122.9 381.021   1
 -17   5  -3 21870.4 270.777  -2
  -5  -5 -15 21870.4 270.777   1
  -5  -5 -16 522.551 85.9402   1
  19  -5   3 2251.40 127.636  -2
   5   5  17 2251.40 127.636   1
   5   5  18 3357.72 103.184   1
  21  -5   3 4113.84 138.514  -2
   5   5  19 4113.84 138.514   1
   5   5  20 3405.94 111.573   1
 -23   5  -3 2030.92 142.547  -2
  -5  -5 -21 2030.92 142.547   1
   5  -5  22 416.534 111.874   1
 -25   5  -3 2985.09 164.882  -2
  -5  -5 -23 2985.09 164.882   1
   5   5  24 313.791 122.132   1
  27  -5   3 2835.66 208.084  -2
   5   5  25 2835.66 208.084   1
   5   5  26 632.449 153.332   1
  29  -5   3 220.408 193.440  -2
   5   5  27 220.408 193.440   1
  31  -5   2 360.937 183.836  -2
   5   5  28 360.937 183.836   1
   5   5  29 441.192 168.188   1
 -33   5  -2 533.891 206.590  -2
  -5  -5 -30 533.891 206.590   1
   5   5  31 1417.47 190.318   1
  35  -5   2 447.370 219.928  -2
   5   5  32 447.370 219.928   1
   5   5  33 12.2352 157.288   1
  37  -5   2 429.687 178.821  -2
   5   5  34 429.687 178.821   1
  35  -7  -7 450.942 166.458  -2
  -5   7  33 450.942 166.458   1
  -5   7  32 116.968 135.081   1
  33  -7  -7 254.229 152.911  -2
  -5   7  31 254.229 152.911   1
  -5   7  30-64.1978 126.249   1
  31  -7  -7 1529.69 232.731  -2
  -5   7  29 1529.69 232.731   1
  -5   7  28 45.1502 178.593   1
  29  -7  -7 425.552 231.831  -2
  -5   7  27 425.552 231.831   1
  -5   7  26 1023.78 150.960   1
  -5   7  25 88.4730 185.230   1
 -27  -7   7 430.315 323.914  -2
   5   7 -25 430.315 323.914   1
  -5   7  24 375.042 190.293   1
 -25   7   6 2008.59 428.788  -2
   5  -7 -24 2008.59 428.788   1
   5   7 -23 516.833 204.393   1
 -23   7   6 88.5894 258.661  -2
   5  -7 -22 88.5894 258.661   1
   5  -7 -21 664.945 204.975   1
 -21   7   6 2313.54 392.484  -2
   5  -7 -20 2313.54 392.484   1
   5  -7 -19 385.589 272.063   1
 -19   7   6 9872.94 488.234  -2
   5  -7 -18 9872.94 488.234   1
   5  -7 -17 1087.35 255.324   1
 -17   7   6 7363.19 440.005  -2
   5  -7 -16 7363.19 440.005   1
   5  -7 -15 7490.84 336.870   1
 -15   7   6 7294.60 390.980  -2
   5  -7 -14 7294.60 390.980   1
   5  -7 -13 16932.6 404.793   1
 -13   7   6 3440.62 333.566  -2
   5  -7 -12 3440.62 333.566   1
 -11   7   5 7210.07 356.478  -2
   5  -7 -11 7210.07 356.478   1
   5  -7 -10 17937.5 387.914   1
  -9  -7   5 2338.54 174.670  -2
   5   7  -9 2338.54 174.670   1
   5   7  -8 2518.71 139.500   1
  -7   7   5 9557.40 238.939  -2
   5  -7  -7 9557.40 238.939   1
   5   7  -6 14509.1 217.373   1
  -5  -7   5 6364.70 84.5973  -2
   5   7  -5 6364.70 84.5973   1
   5  -7  -4 5493.81 136.345   1
  -3  -7   5 19947.2 298.382  -2
   5   7  -3 19947.2 298.382   1
  -5   7   2 53776.4 349.745   1
  -1  -7   5 2083.78 160.054  -2
   5   7  -1 2083.78 160.054   1
   5   7   0 7694.64 137.085   1
   5   7   1 8510.50 250.481   1
   1  -7   5 12894.0 197.037  -2
   5   7   1 12894.0 197.037   1
   5   7   2 126.338 168.032   1
  -3  -7  -4 3198.17 169.374  -2
  -5   7  -2 3198.17 169.374   1
   5   7   3 18457.0 191.318   1
   5  -7   4 19330.5 412.817  -2
   5   7   4 19330.5 412.817   1
   5   7   5 10692.0 162.226   1
   7  -7   4 24923.3 532.499  -2
   5   7   6 24923.3 532.499   1
   5   7   7 119.133 193.307   1
   9  -7   4 4608.60 341.844  -2
   5   7   8 4608.60 341.844   1
   5   7   9 1337.19 225.031   1
  11  -7   4 12275.0 455.959  -2
   5   7  10 12275.0 455.959   1
   5   7  11 486.758 235.725   1
  13  -7   4 15430.8 501.313  -2
   5   7  12 15430.8 501.313   1
   5   7  13 99.9447 228.383   1
  15  -7   4 12539.2 210.112  -2
   5   7  14 12539.2 210.112   1
  17  -7   3 2982.81 181.270  -2
   5   7  15 2982.81 181.270   1
   5   7  16 4948.47 125.628   1
  19  -7   3 9018.02 184.602  -2
   5   7  17 9018.02 184.602   1
   5   7  18 6041.61 143.199   1
  21  -7   3 629.273 156.384  -2
   5   7  19 629.273 156.384   1
   5   7  20 135.111 123.470   1
  23  -7   3 2080.55 183.933  -2
   5   7  21 2080.55 183.933   1
   5   7  22 396.493 144.296   1
  25  -7   3 1013.48 197.369  -2
   5   7  23 1013.48 197.369   1
   5   7  24 56.7864 147.264   1
  27  -7   3 1695.14 202.817  -2
   5   7  25 1695.14 202.817   1
   5   7  26 472.106 143.765   1
  29  -7   3 904.487 270.004  -2
   5   7  27 904.487 270.004   1
 -31   7  -2 1761.12 217.356  -2
  -5  -7 -28 1761.12 217.356   1
   5   7  29 238.182 157.032   1
  33  -7   2 689.246 229.511  -2
   5   7  30 689.246 229.511   1
   5   7  31 141.206 166.908   1
  35  -7   2 1500.01 197.666  -2
   5   7  32 1500.01 197.666   1
   5   7  33 246.391 121.177   1
  -5   9  32 29.8570 106.616   1
  33  -9  -7 417.273 170.095  -2
  -5   9  31 417.273 170.095   1
  -5   9  30 5.68639 136.062   1
  31  -9  -7 888.479 199.543  -2
  -5   9  29 888.479 199.543   1
  -5   9  28 332.131 163.807   1
  29  -9  -7 782.380 224.098  -2
  -5   9  27 782.380 224.098   1
  -5   9  26 79.8961 177.325   1
  -5   9  25 344.755 186.936   1
  -5   9  24 908.752 194.525   1
 -23   9   6 697.184 411.515  -2
   5  -9 -22 697.184 411.515   1
   5  -9 -21 4772.49 355.331   1
 -21   9   6 626.280 384.581  -2
   5  -9 -20 626.280 384.581   1
   5  -9 -19 165.370 174.268   1
  19  -9  -6 1567.14 74.7706  -2
  -5   9  18 1567.14 74.7706   1
   5  -9 -17 97.5594 161.998   1
  17  -9  -6 19293.9 326.729  -2
  -5   9  16 19293.9 326.729   1
   5  -9 -15 9647.97 205.759   1
 -15   9   6 5951.85 235.365  -2
   5  -9 -14 5951.85 235.365   1
  -5   9  13 8386.30 278.898   1
 -13   9   6 5550.57 296.868  -2
   5  -9 -12 5550.57 296.868   1
  11  -9  -5 3109.34 362.630  -2
  -5   9  11 3109.34 362.630   1
  -5   9  10 98.1163 254.401   1
   9  -9  -5 20217.3 332.915  -2
  -5   9   9 20217.3 332.915   1
  -5   9   8 160.263 131.354   1
  -7  -9   5 3984.38 210.372  -2
   5   9  -7 3984.38 210.372   1
  -5   9   6 456.811 127.218   1
   5  -9  -5 4148.69 211.421  -2
  -5   9   5 4148.69 211.421   1
   5   9  -4 1995.24 136.765   1
  -3  -9   5 643.660 161.226  -2
   5   9  -3 643.660 161.226   1
  -5   9   2 2347.47 141.544   1
  -1  -9   5 4366.40 191.035  -2
   5   9  -1 4366.40 191.035   1
   5   9   0 12468.2 210.956   1
   5   9   1 16153.4 376.767   1
  -1  -9  -5 26607.8 285.814  -2
  -5   9  -1 26607.8 285.814   1
   3  -9   4 11199.1 255.029  -2
   5   9   2 11199.1 255.029   1
   5   9   3 5935.57 139.629   1
   5  -9   4 2693.65 285.358  -2
   5   9   4 2693.65 285.358   1
   5   9   5 2002.01 237.959   1
   7  -9   4 31550.5 664.110  -2
   5   9   6 31550.5 664.110   1
   5   9   7 237.209 222.721   1
   9  -9   4 7984.57 140.720  -2
   5   9   8 7984.57 140.720   1
   5   9   9 8919.72 345.176   1
  11  -9   4 2830.61 373.422  -2
   5   9  10 2830.61 373.422   1
   5   9  11 4745.49 324.586   1
  13  -9   4 5294.69 450.343  -2
   5   9  12 5294.69 450.343   1
   5   9  13 3465.82 350.447   1
  15  -9   4 64.4710 368.355  -2
   5   9  14 64.4710 368.355   1
  17  -9   3 5994.73 457.348  -2
   5   9  15 5994.73 457.348   1
   5   9  16 1502.52 171.165   1
  19  -9   3 721.819 155.242  -2
   5   9  17 721.819 155.242   1
   5   9  18 894.764 135.213   1
  21  -9   3 207.351 176.017  -2
   5   9  19 207.351 176.017   1
   5   9  20 3142.79 150.824   1
  23  -9   3 45.8255 65.3358  -2
   5   9  21 45.8255 65.3358   1
   5   9  22 1747.64 143.960   1
  25  -9   3 536.914 178.724  -2
   5   9  23 536.914 178.724   1
   5   9  24 1057.29 208.190   1
  27  -9   3 491.315 257.425  -2
   5   9  25 491.315 257.425   1
  -5  -9 -26 232.680 154.522   1
  29  -9   3 539.572 196.367  -2
   5   9  27 539.572 196.367   1
   5   9  28 666.233 172.010   1
   5   9  29 1364.73 164.844   1
  33  -9   2 475.948 175.676  -2
   5   9  30 475.948 175.676   1
   5   9  31 166.864 116.506   1
  31 -11  -7 710.256 146.672  -2
  -5  11  29 710.256 146.672   1
  -5  11  28 59.8668 127.211   1
  29 -11  -7 260.453 173.739  -2
  -5  11  27 260.453 173.739   1
  -5  11  26 1372.75 161.472   1
  -5  11  25 67.8293 162.361   1
  -5  11  24 513.784 176.218   1
  -5  11  23 970.565 186.796   1
  -5  11  13 8736.15 447.095   1
  13 -11  -6 61.2270 404.281  -2
  -5  11  12 61.2270 404.281   1
  11 -11  -5 979.213 416.398  -2
  -5  11  11 979.213 416.398   1
  -5  11  10 8381.75 417.009   1
   9 -11  -5 9500.27 491.963  -2
  -5  11   9 9500.27 491.963   1
  -5  11   8 385.697 276.747   1
   7 -11  -5 1154.40 212.020  -2
  -5  11   7 1154.40 212.020   1
  -5  11   6 8065.37 233.533   1
   5 -11  -5 5743.76 265.919  -2
  -5  11   5 5743.76 265.919   1
  -5  11   4 1814.58 158.813   1
   3 -11  -5 457.004 190.290  -2
  -5  11   3 457.004 190.290   1
   5  11  -2 10343.7 329.469   1
  -1 -11   5 3478.51 310.475  -2
   5  11  -1 3478.51 310.475   1
   5  11   0 5354.01 195.899   1
   1 -11   5 71.0648 113.046  -2
   5  11   1 71.0648 113.046   1
   3 -11   4 428.437 286.136  -2
   5  11   2 428.437 286.136   1
   5  11   3 17203.0 430.294   1
   5 -11   4 4075.50 401.082  -2
   5  11   4 4075.50 401.082   1
   5  11   5 6045.89 233.145   1
   7 -11   4 382.460 227.667  -2
   5  11   6 382.460 227.667   1
   5  11   7 207.546 184.056   1
   9 -11   4 6421.08 103.395  -2
   5  11   8 6421.08 103.395   1
   5  11   9 141.742 190.537   1
  11 -11   4 4004.69 315.286  -2
   5  11  10 4004.69 315.286   1
   5  11  11 19038.2 358.637   1
  13 -11   4 32723.0 569.993  -2
   5  11  12 32723.0 569.993   1
  15 -11   4 7760.60 284.374  -2
   5  11  14 7760.60 284.374   1
  17 -11   3 4020.26 274.121  -2
   5  11  15 4020.26 274.121   1
   5  11  16 201.270 200.113   1
  19 -11   3 14125.2 347.489  -2
   5  11  17 14125.2 347.489   1
   5  11  18 8653.36 261.810   1
  21 -11   3 2972.28 288.032  -2
   5  11  19 2972.28 288.032   1
   5  11  20 635.142 196.083   1
  23 -11   3 1248.42 259.095  -2
   5  11  21 1248.42 259.095   1
   5  11  22 17.3385 187.433   1
  25 -11   3 375.102 189.080  -2
   5  11  23 375.102 189.080   1
   5  11  24 202.377 138.017   1
  27 -11   3 415.488 172.342  -2
   5  11  25 415.488 172.342   1
   5  11  26 108.639 143.515   1
   5  11  27-23.7625 131.596   1
   5  11  28 65.2220 113.508   1
  -5  13  26-24.2474 99.9426   1
  -5  13  25 56.8101 112.567   1
  -5  13  24 96.1937 127.296   1
  -5  13  23 210.044 139.174   1
  23 -13  -6 344.742 200.406  -2
  -5  13  22 344.742 200.406   1
  -5  13  21 26.6118 155.622   1
  21 -13  -6 1362.75 224.226  -2
  -5  13  20 1362.75 224.226   1
   5  13  11 929.402 168.452   1
  13 -13   4 71.3006 219.698  -2
   5  13  12 71.3006 219.698   1
   5  13  13 895.937 179.072   1
  15 -13   4 650.470 214.920  -2
   5  13  14 650.470 214.920   1
  17 -13   3 6916.46 253.242  -2
   5  13  15 6916.46 253.242   1
   5  13  16 67.1488 169.227   1
  19 -13   3 160.638 217.441  -2
   5  13  17 160.638 217.441   1
   5  13  18-37.8832 168.299   1
  21 -13   3 2053.75 225.374  -2
   5  13  19 2053.75 225.374   1
   5  13  20 1034.05 158.881   1
  23 -13   3 3207.79 208.749  -2
   5  13  21 3207.79 208.749   1
   5  13  22 1635.65 144.275   1
  25 -13   3 27.6829 161.734  -2
   5  13  23 27.6829 161.734   1
  21 -15  -6 331.349 135.932  -2
  -5  15  20 331.349 135.932   1
  -5  15  19 1042.84 123.175   1
  19 -15  -6-16.6962 159.431  -2
  -5  15  18-16.6962 159.431   1
  -5  15  17 87.7102 128.866   1
  17 -15  -6 181.938 186.288  -2
  -5  15  16 181.938 186.288   1
   6   0 -36 169.178 208.565   1
 -36   0   8 91.2195 333.370  -2
   6   0 -34 91.2195 333.370   1
 -34   0   8 2511.66 386.641  -2
   6   0 -32 2511.66 386.641   1
 -32   0   8 4730.27 409.646  -2
   6   0 -30 4730.27 409.646   1
  -6   0  26 420.116 270.816   1
  -6   0  24 1905.57 279.266   1
  -6   0  22-66.1220 240.811   1
  -6   0  20 6548.28 321.907   1
  -6   0  18 3129.60 271.446   1
  -6   0  16 4234.59 274.102   1
  -6   0  14 1046.62 108.538   1
 -12   0   6 20463.9 228.293  -2
   6   0 -12 20463.9 228.293   1
 -10   0   6 134859. 533.152  -2
   6   0 -10 134859. 533.152   1
  -8   0   6 418330. 1109.82  -2
   6   0  -8 418330. 1109.82   1
  -6   0   6 690562. 1502.05  -2
   6   0  -6 690562. 1502.05   1
  -4   0   6 365043. 977.535  -2
   6   0  -4 365043. 977.535   1
  -2   0   6 31899.4 290.952  -2
   6   0  -2 31899.4 290.952   1
   0   0   6 11085.4 218.494  -2
   6   0   0 11085.4 218.494   1
   6   0   2 83061.7 226.453   1
   6   0   4 61937.0 181.398   1
   6   0   6 118430. 182.719   1
   6   0   8 6018.50 41.7876   1
   6   0  10 48061.6 154.457   1
  -6   0 -12 59010.5 277.076   1
  -6   0 -14 1452.72 278.065   1
  16   0   4 7859.64 186.789  -2
   6   0  14 7859.64 186.789   1
 -18   0  -4 8160.37 431.864  -2
  -6   0 -16 8160.37 431.864   1
 -20   0  -4 13840.6 555.915  -2
  -6   0 -18 13840.6 555.915   1
  22   0   4 31459.6 263.603  -2
   6   0  20 31459.6 263.603   1
 -24   0  -4 12109.1 210.459  -2
  -6   0 -22 12109.1 210.459   1
  26   0   4 10376.8 208.660  -2
   6   0  24 10376.8 208.660   1
  28   0   4 3696.22 203.802  -2
   6   0  26 3696.22 203.802   1
   6   0  28 125.436 142.147   1
   6   0  30 2001.34 229.190   1
   6   0  32 77.5896 190.801   1
  -6   0 -34 70.1667 124.365   1
   6   2 -37 41.1303 120.450   1
   6  -2 -36 8.18585 196.241   1
 -38  -2   8-47.0551 280.489  -2
   6   2 -36-47.0551 280.489   1
   6   2 -35 159.167 158.933   1
 -36  -2   8 970.877 235.259  -2
   6   2 -34 970.877 235.259   1
   6   2 -33 205.159 189.982   1
 -34  -2   8 150.655 254.333  -2
   6   2 -32 150.655 254.333   1
   6   2 -31 103.005 195.327   1
 -32  -2   8 587.055 367.915  -2
   6   2 -30 587.055 367.915   1
   6   2 -29 2500.77 295.373   1
 -30  -2   8 731.883 382.526  -2
   6   2 -28 731.883 382.526   1
   6   2 -27 3089.07 155.247   1
  -6   2  26 367.129 137.113   1
  -6   2  25 50.9968 151.095   1
  26   2  -7 1044.79 256.052  -2
  -6  -2  25 1044.79 256.052   1
  -6   2  24 143.761 118.261   1
  24   2  -7 3768.78 147.052  -2
  -6  -2  23 3768.78 147.052   1
  -6  -2  22 696.538 108.956   1
  22   2  -7 3624.68 202.425  -2
  -6  -2  21 3624.68 202.425   1
  -6  -2  20 3547.57 150.868   1
  20   2  -7 5077.33 274.572  -2
  -6  -2  19 5077.33 274.572   1
  -6  -2  18 877.434 169.853   1
  18   2  -7 15968.6 333.816  -2
  -6  -2  17 15968.6 333.816   1
  -6   2  16 3118.81 296.977   1
 -16  -2   7 46433.5 291.772  -2
   6   2 -15 46433.5 291.772   1
  -6   2  14 364.252 113.015   1
   6   2 -13 42778.1 330.666   1
  14  -2  -7 55200.2 564.678  -2
  -6   2  13 55200.2 564.678   1
   6   2 -12 158.890 127.532   1
  12  -2  -6 665.304 277.687  -2
  -6   2  12 665.304 277.687   1
  -6   2  11 2993.61 119.583   1
 -10  -2   6 2069.77 109.956  -2
   6   2 -10 2069.77 109.956   1
   6   2  -9 14875.9 84.1644   1
  -8   2   6 75374.0 301.062  -2
   6  -2  -8 75374.0 301.062   1
  -6   2   7 32455.9 221.093   1
   6  -2  -6 2441.05 52.9309  -2
  -6   2   6 2441.05 52.9309   1
  -6   2   5 6637.07 129.802   1
   4  -2  -6 118067. 428.330  -2
  -6   2   4 118067. 428.330   1
  -6   2   3 73211.7 212.462   1
   6   2  -2 6866.10 147.602   1
   2   2  -6 7822.40 109.011  -2
  -6  -2   2 7822.40 109.011   1
   6   2  -1 10829.3 70.8672   1
   6  -2   0 817.136 43.0517   1
   6   2   1 157248. 221.776   1
   6   2   2 34610.4 138.032   1
   6   2   3 154389. 380.499   1
  -4   2  -5 481693. 1044.92  -2
  -6  -2  -3 481693. 1044.92   1
   6   2   4 188509. 472.431   1
  -6   2  -5 349840. 835.843  -2
  -6  -2  -5 349840. 835.843   1
   6   2   6 240658. 563.371   1
   8  -2   5 11835.0 116.377  -2
   6   2   7 11835.0 116.377   1
   6   2   8 12937.0 93.0305   1
 -10   2  -5 17802.5 122.820  -2
  -6  -2  -9 17802.5 122.820   1
  -6   2 -10 49045.5 139.723   1
 -12   2  -5 5082.58 98.9776  -2
  -6  -2 -11 5082.58 98.9776   1
  -6   2 -12 16456.7 123.153   1
  -6  -2 -13 593.399 83.0430   1
  14  -2   5 5244.71 193.552  -2
   6   2  13 5244.71 193.552   1
 -16  -2  -4 18183.3 260.410  -2
  -6   2 -14 18183.3 260.410   1
   6   2  15 847.211 143.040   1
 -18  -2  -4 10207.6 216.824  -2
  -6   2 -16 10207.6 216.824   1
  -6  -2 -17 4326.77 154.261   1
  20  -2   4 1548.00 124.438  -2
   6   2  18 1548.00 124.438   1
   6  -2  19 827.391 66.4027   1
  22  -2   4 3972.56 106.243  -2
   6   2  20 3972.56 106.243   1
   6   2  21 3258.90 81.0294   1
  24  -2   4 852.076 103.529  -2
   6   2  22 852.076 103.529   1
   6  -2  23 6447.32 107.762   1
  26   2   4 6272.92 141.440  -2
   6  -2  24 6272.92 141.440   1
   6  -2  25 1622.96 104.993   1
   6  -2  26 852.852 234.978   1
  28  -2   4 5480.83 163.742  -2
   6   2  26 5480.83 163.742   1
   6  -2  27 662.533 234.776   1
  30  -2   3 702.855 190.251  -2
   6   2  27 702.855 190.251   1
   6   2  28 108.196 108.763   1
  32  -2   3 875.136 141.997  -2
   6   2  29 875.136 141.997   1
  -6  -2 -30 58.9369 122.792   1
  34  -2   3 341.737 180.168  -2
   6   2  31 341.737 180.168   1
   6   2  32 887.463 116.540   1
 -36  -2  -3 345.379 169.349  -2
  -6   2 -33 345.379 169.349   1
   6   2  34 223.061 112.447   1
 -38   2  -3 711.026 231.698  -2
  -6  -2 -35 711.026 231.698   1
   6  -4 -36 15.4968 164.533   1
   6   4 -35 36.2248 140.995   1
 -36  -4   8 29.4029 208.108  -2
   6   4 -34 29.4029 208.108   1
   6   4 -33 139.579 173.812   1
  34  -4  -8 2135.10 154.891  -2
  -6   4  32 2135.10 154.891   1
   6   4 -31 62.2640 127.509   1
  32  -4  -8 1352.14 176.203  -2
  -6   4  30 1352.14 176.203   1
   6   4 -29 96.3934 138.758   1
  30  -4  -8 1574.59 179.168  -2
  -6   4  28 1574.59 179.168   1
  -6   4  27 903.828 138.732   1
  -6   4  26 330.895 162.605   1
 -28  -4   8 1538.10 364.942  -2
   6   4 -26 1538.10 364.942   1
  -6   4  25 127.857 140.349   1
 -26   4   7 168.277 124.515  -2
   6  -4 -25 168.277 124.515   1
  -6   4  24 562.342 102.625   1
  24   4  -7 4174.59 138.387  -2
  -6  -4  23 4174.59 138.387   1
   6   4 -22 1980.02 129.190   1
 -22   4   7 89.9956 82.8899  -2
   6  -4 -21 89.9956 82.8899   1
  -6  -4  20 491.064 102.568   1
 -20   4   7 4383.41 202.015  -2
   6  -4 -19 4383.41 202.015   1
  -6   4  18 20826.4 323.472   1
  18  -4  -7 12388.4 343.713  -2
  -6   4  17 12388.4 343.713   1
  -6   4  16 20778.0 305.428   1
 -16   4   7 14002.8 199.482  -2
   6  -4 -15 14002.8 199.482   1
   6   4 -14 3145.96 123.788   1
  14  -4  -7 7385.78 386.296  -2
  -6   4  13 7385.78 386.296   1
 -12   4   6 84196.7 468.302  -2
   6  -4 -12 84196.7 468.302   1
  -6   4  11 2994.91 186.945   1
  10  -4  -6 35993.1 339.900  -2
  -6   4  10 35993.1 339.900   1
  -6   4   9 373.053 134.962   1
  -8   4   6 51395.0 419.855  -2
   6  -4  -8 51395.0 419.855   1
   6  -4  -7 27542.7 187.613   1
  -6   4   6 789.115 107.845  -2
   6  -4  -6 789.115 107.845   1
   6  -4  -5 1413.54 83.3446   1
  -4  -4   6 77549.5 385.314  -2
   6   4  -4 77549.5 385.314   1
   6   4  -3 7504.62 134.128   1
   6  -4  -2 2224.78 141.608   1
  -2  -4   6 5565.88 207.253  -2
   6   4  -2 5565.88 207.253   1
   6  -4  -1 32689.1 215.567   1
   6  -4   0 54264.7 221.863   1
   6   4   1 5638.15 129.009   1
  -2  -4  -5 16409.6 169.381  -2
  -6   4  -1 16409.6 169.381   1
  -6   4  -2 323.578 56.4787   1
   6   4   3 9551.46 98.0882   1
  -4  -4  -5 17679.2 240.172  -2
  -6   4  -3 17679.2 240.172   1
   6   4   4 58496.4 295.021   1
   6  -4   5 4982.60 168.734  -2
   6   4   5 4982.60 168.734   1
   6   4   6 6679.87 61.0452   1
  -8  -4  -5 27726.9 327.769  -2
  -6   4  -7 27726.9 327.769   1
   6   4   8 4446.87 158.326   1
  10  -4   5 30386.4 367.179  -2
   6   4   9 30386.4 367.179   1
   6   4  10 23369.9 194.628   1
  12  -4   5 3528.58 204.465  -2
   6   4  11 3528.58 204.465   1
  -6  -4 -12 3891.86 118.051   1
  -6  -4 -13 260.249 124.719   1
  14  -4   5 1983.57 200.285  -2
   6   4  13 1983.57 200.285   1
 -16  -4  -4 1663.13 130.744  -2
  -6   4 -14 1663.13 130.744   1
   6   4  15 1042.48 169.625   1
 -18   4  -4 3223.15 204.898  -2
  -6  -4 -16 3223.15 204.898   1
  -6  -4 -17 1096.59 79.1650   1
 -20  -4  -4 22121.2 162.232  -2
  -6   4 -18 22121.2 162.232   1
   6   4  19-36.9987 76.8360   1
  22  -4   4 22151.8 219.553  -2
   6   4  20 22151.8 219.553   1
   6  -4  21 187.173 111.029   1
  24  -4   4 7258.73 175.175  -2
   6   4  22 7258.73 175.175   1
   6   4  23 577.482 116.486   1
  26  -4   4 8317.43 188.821  -2
   6   4  24 8317.43 188.821   1
   6  -4  25 232.929 124.076   1
   6  -4  26 7523.96 274.670   1
  28  -4   4 11550.7 235.078  -2
   6   4  26 11550.7 235.078   1
   6  -4  27 436.328 226.513   1
  30  -4   3 310.560 191.443  -2
   6   4  27 310.560 191.443   1
   6  -4  28 2213.25 130.643   1
  32  -4   3 1073.00 144.404  -2
   6   4  29 1073.00 144.404   1
   6   4  30 697.194 159.977   1
  34  -4   3 325.009 251.399  -2
   6   4  31 325.009 251.399   1
   6   4  32 399.193 181.397   1
  36  -4   3 1.97357 211.865  -2
   6   4  33 1.97357 211.865   1
   6   4  34 157.726 142.947   1
   6   6 -33 43.5154 94.4228   1
 -34   6   8 944.245 134.093  -2
   6  -6 -32 944.245 134.093   1
   6  -6 -31 94.8899 107.289   1
 -32  -6   8 171.763 149.812  -2
   6   6 -30 171.763 149.812   1
  -6   6  29 669.470 144.973   1
  30  -6  -8 715.706 181.557  -2
  -6   6  28 715.706 181.557   1
   6   6 -27 706.646 147.614   1
  -6   6  26 137.865 168.101   1
 -28  -6   8 145.496 344.778  -2
   6   6 -26 145.496 344.778   1
  -6   6  25 157.652 170.162   1
 -26  -6   7 1183.91 339.790  -2
   6   6 -25 1183.91 339.790   1
   6   6 -24 670.597 135.726   1
 -24   6   7 1300.57 208.545  -2
   6  -6 -23 1300.57 208.545   1
   6  -6 -22 96.7043 148.358   1
 -22   6   7 1230.61 163.963  -2
   6  -6 -21 1230.61 163.963   1
   6  -6 -20 757.247 146.783   1
 -20   6   7 2413.60 193.109  -2
   6  -6 -19 2413.60 193.109   1
   6   6 -18 12154.3 229.546   1
 -18   6   7 71.5513 308.521  -2
   6  -6 -17 71.5513 308.521   1
   6  -6 -16 8959.70 337.187   1
 -16   6   7 12788.5 428.789  -2
   6  -6 -15 12788.5 428.789   1
   6  -6 -14 8659.62 331.475   1
 -14   6   7 23140.0 473.244  -2
   6  -6 -13 23140.0 473.244   1
 -12   6   6 61169.0 641.841  -2
   6  -6 -12 61169.0 641.841   1
   6  -6 -11 11495.1 343.399   1
 -10   6   6 40582.2 591.652  -2
   6  -6 -10 40582.2 591.652   1
   6  -6  -9 136.670 219.868   1
  -8   6   6 16021.2 285.214  -2
   6  -6  -8 16021.2 285.214   1
   6   6  -7 19504.0 232.422   1
  -6   6   6 21750.7 115.494  -2
   6  -6  -6 21750.7 115.494   1
   6  -6  -5 10874.7 188.647   1
  -4  -6   6 45140.1 405.894  -2
   6   6  -4 45140.1 405.894   1
   6  -6  -3 26009.1 248.598   1
  -2   6   6 35243.3 308.989  -2
   6  -6  -2 35243.3 308.989   1
   6   6  -1 1778.92 120.646   1
  -6   6   0 118.139 85.7301   1
  -6   6  -1 47894.7 242.472   1
   6   6   2 53548.7 245.313   1
  -4  -6  -5 22068.4 187.438  -2
  -6   6  -3 22068.4 187.438   1
   6   6   4 658.206 189.470   1
   6  -6   5 5618.48 147.839  -2
   6   6   5 5618.48 147.839   1
   6   6   6 33.8291 181.140   1
   8  -6   5 47643.9 674.615  -2
   6   6   7 47643.9 674.615   1
   6   6   8 8641.06 293.254   1
  10  -6   5 27248.3 566.788  -2
   6   6   9 27248.3 566.788   1
   6   6  10 2651.23 232.715   1
  12  -6   5 19440.2 490.102  -2
   6   6  11 19440.2 490.102   1
   6   6  12 294.088 205.766   1
  14  -6   5 1884.62 295.423  -2
   6   6  13 1884.62 295.423   1
  16  -6   4 19639.5 230.140  -2
   6   6  14 19639.5 230.140   1
   6   6  15 161.527 88.5174   1
  18   6   4 16981.1 169.460  -2
   6  -6  16 16981.1 169.460   1
   6   6  17 548.628 95.0329   1
  20  -6   4 7028.04 156.485  -2
   6   6  18 7028.04 156.485   1
   6  -6  19 408.075 100.911   1
  22   6   4 686.100 138.196  -2
   6  -6  20 686.100 138.196   1
  -6  -6 -21 164.109 116.501   1
  24  -6   4 339.973 159.879  -2
   6   6  22 339.973 159.879   1
   6  -6  23 6297.43 147.645   1
  26  -6   4 741.278 195.152  -2
   6   6  24 741.278 195.152   1
   6   6  25 204.548 154.404   1
  28  -6   4 2856.94 205.730  -2
   6   6  26 2856.94 205.730   1
  30  -6   3 522.997 186.313  -2
   6   6  27 522.997 186.313   1
   6   6  28 662.154 138.736   1
  32  -6   3 1135.20 214.241  -2
   6   6  29 1135.20 214.241   1
  -6  -6 -30 36.2548 154.625   1
  34  -6   3 268.702 229.411  -2
   6   6  31 268.702 229.411   1
   6   6  32 872.331 164.495   1
  36  -6   3 143.559 60.2018  -2
   6   6  33 143.559 60.2018   1
  34  -8  -8 1209.19 173.536  -2
  -6   8  32 1209.19 173.536   1
  -6   8  31 364.428 143.395   1
  32  -8  -8 562.318 197.241  -2
  -6   8  30 562.318 197.241   1
  -6   8  29 41.6796 162.747   1
  30  -8  -8 816.848 219.683  -2
  -6   8  28 816.848 219.683   1
  -6   8  27 45.1789 176.123   1
  -6   8  26 17.1718 185.379   1
  -6   8  25 1409.05 204.828   1
  -6   8  24 82.5584 194.238   1
   6  -8 -22 294.315 313.425   1
 -22   8   7 194.466 99.0177  -2
   6  -8 -21 194.466 99.0177   1
  -6   8  20 196.431 169.375   1
 -20   8   7 1943.26 104.815  -2
   6  -8 -19 1943.26 104.815   1
   6  -8 -18 1160.86 191.111   1
 -18   8   7 9301.73 307.564  -2
   6  -8 -17 9301.73 307.564   1
   6  -8 -16 377.604 181.286   1
 -16   8   7 1511.28 220.854  -2
   6  -8 -15 1511.28 220.854   1
   6  -8 -14 116.845 173.854   1
 -14   8   7 7033.33 397.879  -2
   6  -8 -13 7033.33 397.879   1
 -12   8   6 1170.71 309.751  -2
   6  -8 -12 1170.71 309.751   1
   6  -8 -11 1138.95 237.426   1
 -10   8   6 27045.1 584.875  -2
   6  -8 -10 27045.1 584.875   1
   6  -8  -9 10302.3 218.644   1
  -8   8   6 3316.22 201.564  -2
   6  -8  -8 3316.22 201.564   1
   6   8  -7 3307.95 133.872   1
   6  -8  -6 3499.17 173.972  -2
  -6   8   6 3499.17 173.972   1
  -6   8   5 18824.8 252.915   1
   4  -8  -6 11246.7 258.659  -2
  -6   8   4 11246.7 258.659   1
   6   8  -3 722.404 125.521   1
   2  -8  -6 20129.7 280.148  -2
  -6   8   2 20129.7 280.148   1
   6   8  -1 72452.3 426.604   1
   0  -8  -6 5046.51 176.356  -2
  -6   8   0 5046.51 176.356   1
   6   8   1 4090.66 226.225   1
   2  -8   5 5751.85 171.296  -2
   6   8   1 5751.85 171.296   1
   6   8   2 25867.2 292.625   1
   4  -8   5 18514.7 303.992  -2
   6   8   3 18514.7 303.992   1
   6   8   4 28271.5 313.232   1
   6  -8   5 3403.39 324.251  -2
   6   8   5 3403.39 324.251   1
   6   8   6 42713.6 546.336   1
   8  -8   5 8148.56 410.325  -2
   6   8   7 8148.56 410.325   1
   6   8   8 1144.23 251.457   1
  10  -8   5 42874.0 782.545  -2
   6   8   9 42874.0 782.545   1
   6   8  10 3093.45 278.532   1
  12  -8   5 20801.9 600.042  -2
   6   8  11 20801.9 600.042   1
   6   8  12 16179.2 443.136   1
  14  -8   5 5096.49 408.915  -2
   6   8  13 5096.49 408.915   1
  16  -8   4 7457.99 207.940  -2
   6   8  14 7457.99 207.940   1
   6   8  15 2248.28 118.386   1
  18  -8   4 7593.36 179.966  -2
   6   8  16 7593.36 179.966   1
   6   8  17 1058.78 119.440   1
  20  -8   4 1042.11 158.596  -2
   6   8  18 1042.11 158.596   1
   6   8  19 1028.61 125.754   1
  22  -8   4 7918.42 232.100  -2
   6   8  20 7918.42 232.100   1
   6   8  21 208.872 146.551   1
  24  -8   4 1448.87 197.206  -2
   6   8  22 1448.87 197.206   1
   6   8  23 457.889 147.474   1
  26  -8   4 4043.16 205.403  -2
   6   8  24 4043.16 205.403   1
   6   8  25 649.386 140.910   1
  28  -8   4 3740.61 281.749  -2
   6   8  26 3740.61 281.749   1
 -30   8  -3 1457.75 209.123  -2
  -6  -8 -27 1457.75 209.123   1
   6   8  28 49.9859 148.904   1
 -32   8  -3 551.388 182.576  -2
  -6  -8 -29 551.388 182.576   1
   6   8  30 91.8103 155.165   1
  34  -8   3 132.739 175.738  -2
   6   8  31 132.739 175.738   1
  -6  10  31 21.1222 98.1535   1
  32 -10  -8-12.3483 150.668  -2
  -6  10  30-12.3483 150.668   1
  -6  10  29 4.87865 129.941   1
  30 -10  -8 236.404 182.849  -2
  -6  10  28 236.404 182.849   1
  -6  10  27 34.7641 154.338   1
  -6  10  26 61.1854 165.527   1
  -6  10  25 950.585 179.796   1
  -6  10  24 1251.18 184.574   1
  -6  10  16 698.853 338.475   1
  16 -10  -7 1866.44 467.158  -2
  -6  10  15 1866.44 467.158   1
  -6  10  14 296.207 343.908   1
  14 -10  -7 6764.27 499.755  -2
  -6  10  13 6764.27 499.755   1
  12 -10  -6 7020.12 458.899  -2
  -6  10  12 7020.12 458.899   1
  -6  10  11 2160.01 344.910   1
  10 -10  -6 2519.20 375.827  -2
  -6  10  10 2519.20 375.827   1
  -6  10   9 6412.41 338.231   1
  -8 -10   6 3743.94 233.110  -2
   6  10  -8 3743.94 233.110   1
   6  10  -7 1037.22 157.084   1
   6 -10  -6 15791.2 129.713  -2
  -6  10   6 15791.2 129.713   1
  -6  10   5 1274.57 147.475   1
   4 -10  -6 11313.6 299.715  -2
  -6  10   4 11313.6 299.715   1
   6  10  -3 75.7784 131.156   1
  -2 -10   6 40719.7 449.897  -2
   6  10  -2 40719.7 449.897   1
   6  10  -1 8252.30 313.291   1
   0 -10   6 36278.4 560.579  -2
   6  10   0 36278.4 560.579   1
   2 -10   5 13799.4 432.174  -2
   6  10   1 13799.4 432.174   1
   6  10   2 3673.17 257.106   1
   4 -10   5 12724.4 481.306  -2
   6  10   3 12724.4 481.306   1
   6  10   4 8499.52 237.177   1
   6 -10   5 549.719 208.225  -2
   6  10   5 549.719 208.225   1
   6  10   6 6090.43 217.980   1
   8 -10   5 6363.83 306.718  -2
   6  10   7 6363.83 306.718   1
   6  10   8 1375.83 196.692   1
  10 -10   5 11617.1 371.979  -2
   6  10   9 11617.1 371.979   1
   6  10  10 1331.01 193.677   1
  12 -10   5 1804.28 267.279  -2
   6  10  11 1804.28 267.279   1
   6  10  12 4758.15 243.117   1
  14 -10   5 7578.54 330.763  -2
   6  10  13 7578.54 330.763   1
  16 -10   4 4793.56 201.495  -2
   6  10  14 4793.56 201.495   1
   6  10  15 313.390 197.892   1
  18 -10   4 14511.0 344.702  -2
   6  10  16 14511.0 344.702   1
   6  10  17 2934.81 223.292   1
  20 -10   4 2830.34 283.934  -2
   6  10  18 2830.34 283.934   1
   6  10  19 264.327 204.357   1
  22 -10   4 1477.79 281.618  -2
   6  10  20 1477.79 281.618   1
   6  10  21 1399.00 217.643   1
  24 -10   4 1043.81 264.977  -2
   6  10  22 1043.81 264.977   1
   6  10  23 1381.66 204.646   1
  26 -10   4 1003.78 245.828  -2
   6  10  24 1003.78 245.828   1
  -6 -10 -25 614.305 152.877   1
  -6 -10 -26 716.766 142.335   1
  30 -10   3-18.4954 195.936  -2
   6  10  27-18.4954 195.936   1
   6  10  28 39.9521 137.774   1
  32 -10   3 219.422 154.693  -2
   6  10  29 219.422 154.693   1
  -6  12  28 11.1693 100.351   1
  -6  12  27 33.5718 117.153   1
  -6  12  26 4.30042 125.622   1
  -6  12  25 122.089 141.982   1
  -6  12  24 212.968 148.311   1
  24 -12  -7 1849.87 222.623  -2
  -6  12  23 1849.87 222.623   1
  -6  12  22 527.716 175.871   1
  -6 -12   6 4389.94 456.515  -2
   6  12  -6 4389.94 456.515   1
   6  12  -5 3555.74 286.977   1
  -4 -12   6 2007.13 348.068  -2
   6  12  -4 2007.13 348.068   1
   6  12  -3 1025.41 226.421   1
  -2 -12   6 1196.26 302.228  -2
   6  12  -2 1196.26 302.228   1
   6  12  -1 17420.6 434.588   1
   0 -12   6 8506.96 413.719  -2
   6  12   0 8506.96 413.719   1
   2 -12   5 1584.13 316.800  -2
   6  12   1 1584.13 316.800   1
   6  12   2 91.7010 229.367   1
   4 -12   5 6222.41 435.074  -2
   6  12   3 6222.41 435.074   1
   6  12   4 1260.51 261.562   1
   6 -12   5 23228.8 678.661  -2
   6  12   5 23228.8 678.661   1
   6  12   6 2898.28 301.171   1
  12 -12   5 6102.59 246.139  -2
   6  12  11 6102.59 246.139   1
   6  12  12 5911.62 218.192   1
  14 -12   5 2374.61 244.407  -2
   6  12  13 2374.61 244.407   1
  16 -12   4 2390.13 242.753  -2
   6  12  14 2390.13 242.753   1
   6  12  15 356.505 179.949   1
  18 -12   4 6469.74 279.380  -2
   6  12  16 6469.74 279.380   1
   6  12  17 33.1228 182.071   1
  20 -12   4 2754.68 252.244  -2
   6  12  18 2754.68 252.244   1
   6  12  19 945.840 178.286   1
 -22  12  -4 1891.07 85.6636  -2
  -6 -12 -20 1891.07 85.6636   1
   6  12  21 121.293 141.187   1
  24 -12   4 654.951 178.894  -2
   6  12  22 654.951 178.894   1
  -6 -12 -23 2093.26 134.769   1
  26 -12   4 120.282 186.014  -2
   6  12  24 120.282 186.014   1
   6  12  25 164.412 123.744   1
  24 -14  -7 263.348 146.040  -2
  -6  14  23 263.348 146.040   1
  -6  14  22 9.97321 116.275   1
  22 -14  -7 4.96521 173.968  -2
  -6  14  21 4.96521 173.968   1
  -6  14  20 93.4446 144.495   1
  20 -14  -7 815.785 200.615  -2
  -6  14  19 815.785 200.615   1
  -6  16  14 71.4126 113.528   1
   7   1 -37 99.5370 127.747   1
   7  -1 -36-67.0315 151.292   1
 -37   1   9 381.890 226.356  -2
   7  -1 -35 381.890 226.356   1
   7  -1 -34 71.5313 182.403   1
 -35   1   9 270.924 115.138  -2
   7  -1 -33 270.924 115.138   1
   7  -1 -32 48.0481 194.995   1
 -33   1   9 49.7088 259.243  -2
   7  -1 -31 49.7088 259.243   1
   7   1 -30 154.557 203.763   1
 -31  -1   9 1322.37 368.207  -2
   7   1 -29 1322.37 368.207   1
   7   1 -28 255.663 281.555   1
  27   1  -8 1243.91 259.008  -2
  -7  -1  26 1243.91 259.008   1
  -7   1  25 5402.01 242.173   1
  25  -1  -8 2640.93 259.601  -2
  -7   1  24 2640.93 259.601   1
  -7   1  23 3538.84 209.442   1
  23  -1  -8 4065.09 276.954  -2
  -7   1  22 4065.09 276.954   1
  -7   1  21 1249.10 186.392   1
 -21   1   8 5517.52 208.918  -2
   7  -1 -20 5517.52 208.918   1
  -7  -1  19 2937.49 191.679   1
  19  -1  -8 2468.76 242.240  -2
  -7   1  18 2468.76 242.240   1
  -7   1  17 4125.88 196.482   1
  17  -1  -8 10347.9 269.628  -2
  -7   1  16 10347.9 269.628   1
   7   1 -15 7923.96 150.226   1
   7  -1 -14 6101.63 111.097   1
   7   1 -13 8750.23 182.781   1
 -13   1   7 14547.0 203.825  -2
   7  -1 -13 14547.0 203.825   1
   7  -1 -12 5766.23 109.141   1
 -11   1   7 2977.38 121.349  -2
   7  -1 -11 2977.38 121.349   1
   7   1 -10 24953.3 169.132   1
  -9   1   7 14433.1 207.344  -2
   7  -1  -9 14433.1 207.344   1
   7  -1  -8 3251.07 118.429   1
  -7  -1   7 4303.05 162.619  -2
   7   1  -7 4303.05 162.619   1
   7   1  -6 128316. 390.775   1
  -5   1   7 5836.91 171.633  -2
   7  -1  -5 5836.91 171.633   1
   7   1  -4 147207. 404.605   1
  -3  -1   7 64393.4 282.967  -2
   7   1  -3 64393.4 282.967   1
   7   1  -2 106289. 337.158   1
   7   1  -1 24439.9 143.721   1
   7   1   0 66788.6 208.146   1
   7   1   1 1721.23 48.4149   1
   7   1   2 102887. 350.652   1
   3  -1   6 153915. 372.396  -2
   7   1   2 153915. 372.396   1
   7   1   3 83334.5 217.238   1
   5  -1   6 76598.8 193.424  -2
   7   1   4 76598.8 193.424   1
   7   1   5 14866.2 83.3997   1
   7  -1   6 20102.8 60.4755  -2
   7   1   6 20102.8 60.4755   1
   7   1   7 12202.6 85.3886   1
  -9   1  -6 6999.99 105.660  -2
  -7  -1  -8 6999.99 105.660   1
  -7   1  -9 2095.87 44.6557   1
  -7  -1 -10 7355.99 61.4009   1
  11  -1   6 16098.4 152.965  -2
   7   1  10 16098.4 152.965   1
  -7  -1 -11 4114.95 102.184   1
  -7  -1 -12 9170.09 174.334   1
  13  -1   6 38064.3 327.499  -2
   7   1  12 38064.3 327.499   1
  -7   1 -13 9428.19 196.456   1
  15  -1   5 27966.9 303.168  -2
   7   1  13 27966.9 303.168   1
   7   1  14 30369.5 216.049   1
 -17   1  -5 912.124 141.160  -2
  -7  -1 -15 912.124 141.160   1
  -7   1 -16 17306.0 321.996   1
 -19  -1  -5 19318.7 426.488  -2
  -7   1 -17 19318.7 426.488   1
  -7  -1 -18 1798.25 84.4651   1
 -21  -1  -5 12613.6 122.748  -2
  -7   1 -19 12613.6 122.748   1
   7   1  20 3265.33 76.3308   1
 -23  -1  -5 1836.98 98.8519  -2
  -7   1 -21 1836.98 98.8519   1
  -7   1 -22 575.104 77.1549   1
  25  -1   5 3651.16 127.797  -2
   7   1  23 3651.16 127.797   1
   7   1  24 1373.98 98.0011   1
  27  -1   5 98.4175 130.284  -2
   7   1  25 98.4175 130.284   1
  29   1   4 864.156 133.443  -2
   7  -1  26 864.156 133.443   1
   7  -1  27 124.628 101.160   1
 -31   1  -4 1596.24 121.709  -2
  -7  -1 -28 1596.24 121.709   1
   7   1  29 68.6840 106.353   1
  33   1   4 133.466 187.985  -2
   7  -1  30 133.466 187.985   1
   7   1  31 758.130 146.471   1
  35   1   4 81.5149 171.877  -2
   7  -1  32 81.5149 171.877   1
   7  -1  33 1866.89 111.827   1
 -37  -1  -4 460.929 155.083  -2
  -7   1 -34 460.929 155.083   1
  -7  -1 -35 2679.86 169.211   1
   7   3 -36 33.8975 130.613   1
 -37   3   9 417.004 207.197  -2
   7  -3 -35 417.004 207.197   1
   7   3 -34 223.108 165.218   1
 -35  -3   9 324.311 237.989  -2
   7   3 -33 324.311 237.989   1
   7  -3 -32 58.8371 185.977   1
 -33  -3   9 84.4097 245.061  -2
   7   3 -31 84.4097 245.061   1
   7   3 -30-26.0275 264.239   1
  -7   3  29 204.884 152.181   1
 -31  -3   9 363.527 351.480  -2
   7   3 -29 363.527 351.480   1
  -7   3  28-10.5695 129.308   1
  -7   3  27 115.362 158.523   1
 -29  -3   9 486.468 358.049  -2
   7   3 -27 486.468 358.049   1
  -7   3  26 1066.62 163.710   1
 -27  -3   8 1293.36 351.845  -2
   7   3 -26 1293.36 351.845   1
  -7  -3  25 855.626 107.309   1
 -25   3   8 3477.63 139.989  -2
   7  -3 -24 3477.63 139.989   1
  -7   3  23 563.581 88.9515   1
 -23   3   8 6044.20 147.237  -2
   7  -3 -22 6044.20 147.237   1
  -7  -3  21 438.761 123.289   1
  21  -3  -8 25308.1 318.990  -2
  -7   3  20 25308.1 318.990   1
   7  -3 -19 259.251 133.807   1
  19  -3  -8 8302.89 460.524  -2
  -7   3  18 8302.89 460.524   1
  -7   3  17 8148.95 351.476   1
  17  -3  -8 20046.0 506.145  -2
  -7   3  16 20046.0 506.145   1
   7   3 -15-40.0123 116.351   1
   7   3 -14 10667.5 217.800   1
  15  -3  -8 18669.9 452.693  -2
  -7   3  14 18669.9 452.693   1
   7   3 -13 445.475 137.804   1
  13  -3  -7 1010.26 326.054  -2
  -7   3  13 1010.26 326.054   1
   7   3 -12 4793.36 155.614   1
  11  -3  -7 3936.41 174.483  -2
  -7   3  11 3936.41 174.483   1
   7   3 -10 1487.97 124.536   1
   9  -3  -7 17222.5 409.543  -2
  -7   3   9 17222.5 409.543   1
  -7  -3   8 8770.47 108.729   1
   7  -3  -7 6318.14 144.442  -2
  -7   3   7 6318.14 144.442   1
  -7  -3   6 45.7910 84.7379   1
  -5  -3   7 11444.2 139.573  -2
   7   3  -5 11444.2 139.573   1
  -7  -3   4 3004.00 74.0050   1
   7  -3  -3 36723.9 218.871   1
   3  -3  -7 43608.0 224.246  -2
  -7   3   3 43608.0 224.246   1
  -7   3   2 13198.2 97.2239   1
   7   3  -1 1203.02 75.5476   1
   7   3   0 81317.2 246.709   1
   7   3   1 285.742 59.2309   1
   7   3   2 35696.1 333.622   1
  -3   3  -6 112348. 391.495  -2
  -7  -3  -2 112348. 391.495   1
   7   3   3 4128.17 103.136   1
   5  -3   6 65948.6 418.239  -2
   7   3   4 65948.6 418.239   1
  -7  -3  -5 3921.87 133.498   1
  -7   3  -6 676.503 70.0696  -2
  -7  -3  -6 676.503 70.0696   1
  -7  -3  -7 348.070 116.708   1
  -9  -3  -6 16394.8 215.296  -2
  -7   3  -8 16394.8 215.296   1
   7   3   9 31545.3 188.172   1
  11  -3   6 19562.4 172.811  -2
   7   3  10 19562.4 172.811   1
  -7   3 -11 13671.9 159.246   1
  -7  -3 -12 2554.20 87.0684   1
 -13  -3  -6 9743.36 382.850  -2
  -7   3 -12 9743.36 382.850   1
  -7   3 -13 5306.43 308.740   1
  15  -3   5 15427.2 325.215  -2
   7   3  13 15427.2 325.215   1
   7   3  14 11997.6 226.718   1
  17  -3   5 7481.19 248.303  -2
   7   3  15 7481.19 248.303   1
  -7   3 -16 2128.85 145.056   1
 -19   3  -5 20337.6 181.172  -2
  -7  -3 -17 20337.6 181.172   1
   7  -3  18 699.480 72.4101   1
  21  -3   5 4163.97 120.962  -2
   7   3  19 4163.97 120.962   1
   7   3  20 1057.33 89.5461   1
  23   3   5 812.414 119.404  -2
   7  -3  21 812.414 119.404   1
   7   3  22 243.157 106.295   1
  25   3   5 504.818 118.109  -2
   7  -3  23 504.818 118.109   1
   7  -3  24 209.903 121.176   1
   7  -3  25 622.710 240.169   1
  27  -3   5 1852.20 193.788  -2
   7   3  25 1852.20 193.788   1
  29  -3   4 2620.16 168.489  -2
   7   3  26 2620.16 168.489   1
   7   3  27 310.823 126.950   1
  31  -3   4 222.551 154.038  -2
   7   3  28 222.551 154.038   1
   7   3  29 77.0016 106.083   1
 -33   3  -4 2404.74 172.245  -2
  -7  -3 -30 2404.74 172.245   1
  -7   3 -31 347.627 114.272   1
  35  -3   4 1285.58 181.326  -2
   7   3  32 1285.58 181.326   1
   7   3  33 363.612 165.473   1
  37  -3   4 225.830 195.453  -2
   7   3  34 225.830 195.453   1
 -37  -5   9 124.035 161.404  -2
   7   5 -35 124.035 161.404   1
   7   5 -34 62.5871 139.014   1
 -35   5   9 852.967 209.672  -2
   7  -5 -33 852.967 209.672   1
   7   5 -32 50.9765 103.750   1
  33  -5  -9 262.377 142.202  -2
  -7   5  31 262.377 142.202   1
   7   5 -30 16.2711 111.091   1
  31  -5  -9 283.472 175.011  -2
  -7   5  29 283.472 175.011   1
  -7   5  28 53.8151 133.306   1
  -7   5  27 295.415 165.520   1
 -29  -5   9 928.631 361.639  -2
   7   5 -27 928.631 361.639   1
  -7   5  26 1373.49 176.706   1
 -27  -5   8 1911.87 352.207  -2
   7   5 -26 1911.87 352.207   1
  -7   5  25 794.542 142.291   1
 -25   5   8 6917.43 182.896  -2
   7  -5 -24 6917.43 182.896   1
   7  -5 -23 101.821 127.941   1
 -23   5   8 1310.48 166.830  -2
   7  -5 -22 1310.48 166.830   1
   7   5 -21 454.232 125.027   1
 -21  -5   8 2520.06 191.578  -2
   7   5 -20 2520.06 191.578   1
   7   5 -19 7407.41 164.814   1
 -19   5   8 2431.84 178.256  -2
   7  -5 -18 2431.84 178.256   1
   7  -5 -17 6886.42 199.029   1
 -17   5   8 768.600 303.299  -2
   7  -5 -16 768.600 303.299   1
   7   5 -15 5291.05 159.713   1
   7   5 -14 4049.33 191.369   1
  15  -5  -8 6906.84 264.256  -2
  -7   5  14 6906.84 264.256   1
 -13   5   7 8067.77 356.924  -2
   7  -5 -13 8067.77 356.924   1
   7  -5 -12 9447.04 230.315   1
 -11   5   7 32564.5 529.059  -2
   7  -5 -11 32564.5 529.059   1
   7  -5 -10 127.065 206.316   1
  -9   5   7 21740.6 467.586  -2
   7  -5  -9 21740.6 467.586   1
   7  -5  -8 317.601 198.537   1
  -7  -5   7 9188.87 223.468  -2
   7   5  -7 9188.87 223.468   1
   7  -5  -6 15085.6 197.742   1
  -5   5   7 15574.0 235.841  -2
   7  -5  -5 15574.0 235.841   1
   7   5  -4 9654.94 165.798   1
  -3  -5   7 48255.6 300.035  -2
   7   5  -3 48255.6 300.035   1
   7   5  -2 26927.0 230.931   1
   7   5  -1 2348.95 120.464   1
   7  -5   0 4766.35 132.001   1
   7   5   1 3564.08 132.862   1
  -3  -5  -6 18539.0 147.970  -2
  -7   5  -2 18539.0 147.970   1
   7   5   3 6447.66 82.1912   1
   5  -5   6 14450.8 237.724  -2
   7   5   4 14450.8 237.724   1
   7   5   5 6028.25 156.243   1
  -7  -5  -6 13820.4 270.227  -2
  -7   5  -6 13820.4 270.227   1
  -7   5  -7 48438.8 347.082   1
   9  -5   6 5722.40 233.334  -2
   7   5   8 5722.40 233.334   1
   7   5   9 7511.80 200.284   1
 -11  -5  -6 3609.95 215.643  -2
  -7   5 -10 3609.95 215.643   1
  -7   5 -11 11657.6 239.501   1
 -13  -5  -6 614.221 198.193  -2
  -7   5 -12 614.221 198.193   1
 -15  -5  -5 24413.3 353.842  -2
  -7   5 -13 24413.3 353.842   1
  -7   5 -14 1147.48 179.385   1
  17  -5   5 3338.79 114.309  -2
   7   5  15 3338.79 114.309   1
   7   5  16 6425.28 92.7852   1
  19  -5   5 20374.4 168.679  -2
   7   5  17 20374.4 168.679   1
   7  -5  18 8657.55 120.393   1
  21  -5   5 13325.6 181.380  -2
   7   5  19 13325.6 181.380   1
  -7  -5 -20 78.7732 111.129   1
 -23   5  -5 2178.55 155.463  -2
  -7  -5 -21 2178.55 155.463   1
   7   5  22 54.5518 116.615   1
  25   5   5 433.300 165.538  -2
   7  -5  23 433.300 165.538   1
   7  -5  24 173.292 120.951   1
   7  -5  25 460.172 248.237   1
  27  -5   5 387.745 194.111  -2
   7   5  25 387.745 194.111   1
   7  -5  26 911.016 237.229   1
  29  -5   4 577.307 194.576  -2
   7   5  26 577.307 194.576   1
   7   5  27 251.106 124.976   1
  31  -5   4 191.916 180.773  -2
   7   5  28 191.916 180.773   1
   7   5  29 121.460 119.187   1
  33  -5   4 50.2380 80.3820  -2
   7   5  30 50.2380 80.3820   1
   7   5  31 342.000 182.458   1
  35  -5   4 283.747 70.0417  -2
   7   5  32 283.747 70.0417   1
   7   5  33 397.798 156.272   1
  35  -7  -9 315.391 153.321  -2
  -7   7  33 315.391 153.321   1
  -7   7  32 32.1665 127.997   1
  33  -7  -9 128.710 185.080  -2
  -7   7  31 128.710 185.080   1
   7   7 -30-17.1412 108.493   1
 -31   7   9 1696.20 149.802  -2
   7  -7 -29 1696.20 149.802   1
   7   7 -28 592.443 123.916   1
  -7   7  27 548.339 174.499   1
 -29  -7   9 442.272 329.311  -2
   7   7 -27 442.272 329.311   1
  -7   7  26 199.536 179.151   1
 -27  -7   8 1194.80 339.820  -2
   7   7 -26 1194.80 339.820   1
   7   7 -25 312.014 146.075   1
 -25  -7   8 1338.84 352.090  -2
   7   7 -24 1338.84 352.090   1
   7   7 -23 331.700 258.014   1
 -23   7   8 6460.16 247.918  -2
   7  -7 -22 6460.16 247.918   1
   7   7 -21 1902.65 169.259   1
 -21   7   8 4610.28 227.709  -2
   7  -7 -20 4610.28 227.709   1
   7  -7 -19-75.5644 149.061   1
 -19   7   8 1089.20 191.845  -2
   7  -7 -18 1089.20 191.845   1
   7  -7 -17 4026.10 159.881   1
 -17   7   8 10382.9 269.674  -2
   7  -7 -16 10382.9 269.674   1
   7  -7 -15 5435.11 195.175   1
 -15   7   8 8236.00 411.400  -2
   7  -7 -14 8236.00 411.400   1
 -13   7   7 10301.7 408.706  -2
   7  -7 -13 10301.7 408.706   1
   7  -7 -12 12613.3 373.037   1
 -11   7   7 4365.35 358.413  -2
   7  -7 -11 4365.35 358.413   1
   7  -7 -10 2376.08 259.635   1
  -9   7   7 6344.78 385.285  -2
   7  -7  -9 6344.78 385.285   1
   7   7  -8 1851.88 141.284   1
  -7   7   7 8057.04 253.149  -2
   7  -7  -7 8057.04 253.149   1
   7   7  -6 32461.3 304.802   1
  -5   7   7 8921.65 251.066  -2
   7  -7  -5 8921.65 251.066   1
   7  -7  -4 8089.98 187.130   1
  -3   7   7 13485.7 247.205  -2
   7  -7  -3 13485.7 247.205   1
  -7   7   2 116.573 113.438   1
   7   7  -1 3896.73 215.240   1
   1  -7  -7 4100.68 217.597  -2
  -7   7   1 4100.68 217.597   1
   1  -7   6 10194.5 192.367  -2
   7   7   0 10194.5 192.367   1
   7   7   1 2315.30 103.295   1
   3  -7   6 18551.4 182.356  -2
   7   7   2 18551.4 182.356   1
   7   7   3 3882.62 161.693   1
   5  -7   6 27183.3 374.516  -2
   7   7   4 27183.3 374.516   1
   7   7   5 7.17653 177.190   1
   7  -7   6 1692.14 276.989  -2
   7   7   6 1692.14 276.989   1
   7   7   7 18290.4 377.266   1
   9  -7   6 6239.73 359.129  -2
   7   7   8 6239.73 359.129   1
   7   7   9 427.792 237.438   1
  11  -7   6 30567.5 545.602  -2
   7   7  10 30567.5 545.602   1
   7   7  11 2086.25 268.103   1
  13  -7   6 21147.0 488.181  -2
   7   7  12 21147.0 488.181   1
  15  -7   5 15060.3 160.758  -2
   7   7  13 15060.3 160.758   1
   7   7  14 6636.49 116.176   1
  17  -7   5 1087.48 121.087  -2
   7   7  15 1087.48 121.087   1
   7  -7  16 10294.1 127.619   1
  19  -7   5 825.967 140.758  -2
   7   7  17 825.967 140.758   1
   7  -7  18 101.694 107.797   1
  21  -7   5 5588.08 172.164  -2
   7   7  19 5588.08 172.164   1
   7   7  20 2635.61 137.545   1
  23  -7   5 15133.3 267.806  -2
   7   7  21 15133.3 267.806   1
   7   7  22 1095.45 153.408   1
  25  -7   5 1907.52 201.732  -2
   7   7  23 1907.52 201.732   1
   7   7  24 227.210 146.648   1
   7   7  25 977.432 155.805   1
  29  -7   4 2630.59 191.445  -2
   7   7  26 2630.59 191.445   1
   7   7  27 1782.05 145.358   1
  31  -7   4 126.252 204.450  -2
   7   7  28 126.252 204.450   1
  -7  -7 -29 763.797 158.291   1
 -33   7  -4 1618.89 193.243  -2
  -7  -7 -30 1618.89 193.243   1
   7   7  31 1858.46 170.657   1
  35  -7   4 134.368 176.203  -2
   7   7  32 134.368 176.203   1
  -7   9  32 5.32737 103.905   1
  33  -9  -9 102.526 154.830  -2
  -7   9  31 102.526 154.830   1
  -7   9  30 105.244 136.945   1
  31  -9  -9 716.474 195.370  -2
  -7   9  29 716.474 195.370   1
  -7   9  28 383.933 156.538   1
  -7   9  27 644.308 175.907   1
  -7   9  26 843.860 177.179   1
  -7   9  25 3770.30 204.820   1
  19  -9  -8 1232.90 303.582  -2
  -7   9  18 1232.90 303.582   1
  -7   9  17 10218.9 221.784   1
  17  -9  -8 2331.34 313.625  -2
  -7   9  16 2331.34 313.625   1
   7  -9 -15 2298.89 172.393   1
  15  -9  -8 4376.07 319.082  -2
  -7   9  14 4376.07 319.082   1
  13  -9  -7 5263.78 311.567  -2
  -7   9  13 5263.78 311.567   1
  -7   9  12 8503.71 280.629   1
 -11   9   7 5787.00 301.905  -2
   7  -9 -11 5787.00 301.905   1
  -7   9  10 6371.92 244.622   1
  -9  -9   7 15457.0 338.124  -2
   7   9  -9 15457.0 338.124   1
  -7   9   8 147.416 136.886   1
  -7  -9   7 9577.67 103.445  -2
   7   9  -7 9577.67 103.445   1
   7   9  -6 5505.89 181.557   1
   5  -9  -7 2514.99 192.585  -2
  -7   9   5 2514.99 192.585   1
  -7   9   4 4619.38 170.463   1
   3  -9  -7 23863.9 323.655  -2
  -7   9   3 23863.9 323.655   1
  -7   9   2 8129.20 192.837   1
   1  -9  -7 19410.7 266.799  -2
  -7   9   1 19410.7 266.799   1
   1  -9   6 421.907 235.285  -2
   7   9   0 421.907 235.285   1
   7   9   1 7560.35 279.484   1
   3  -9   6 2693.25 294.044  -2
   7   9   2 2693.25 294.044   1
   7   9   3 856.366 202.835   1
   5  -9   6 33888.7 479.253  -2
   7   9   4 33888.7 479.253   1
   7   9   5 6765.38 220.722   1
   7  -9   6 11328.2 145.229  -2
   7   9   6 11328.2 145.229   1
   7   9   7 7802.33 231.730   1
   9  -9   6 1147.79 224.620  -2
   7   9   8 1147.79 224.620   1
   7   9   9 9390.04 263.123   1
  11  -9   6 12202.7 331.783  -2
   7   9  10 12202.7 331.783   1
   7   9  11 551.167 198.790   1
  13  -9   6 5340.04 282.470  -2
   7   9  12 5340.04 282.470   1
  15  -9   5 5763.17 224.257  -2
   7   9  13 5763.17 224.257   1
   7   9  14 3034.16 150.662   1
  17  -9   5 6934.65 221.797  -2
   7   9  15 6934.65 221.797   1
   7   9  16 460.563 106.292   1
  19  -9   5 843.577 171.624  -2
   7   9  17 843.577 171.624   1
   7   9  18 1630.96 139.333   1
  21  -9   5 1396.55 185.794  -2
   7   9  19 1396.55 185.794   1
   7   9  20 1567.31 144.963   1
  23  -9   5 254.525 179.305  -2
   7   9  21 254.525 179.305   1
   7   9  22 103.980 135.825   1
  25  -9   5 723.824 175.359  -2
   7   9  23 723.824 175.359   1
   7   9  24 52.7751 128.632   1
   7   9  25 504.348 190.238   1
  29  -9   4 82.3766 229.931  -2
   7   9  26 82.3766 229.931   1
  -7  -9 -27 1248.49 153.441   1
  31  -9   4 54.4699 73.7171  -2
   7   9  28 54.4699 73.7171   1
   7   9  29 57.7906 146.262   1
  33  -9   4 262.038 162.696  -2
   7   9  30 262.038 162.696   1
  -7  11  29 145.353 105.195   1
  -7  11  28 1086.65 125.772   1
  -7  11  27-3.42186 130.730   1
  -7  11  26 324.908 149.288   1
  -7  11  25 109.622 154.769   1
  25 -11  -8 1024.63 223.972  -2
  -7  11  24 1024.63 223.972   1
  -7  11  23 81.6214 171.803   1
  13 -11  -7 6674.47 512.708  -2
  -7  11  13 6674.47 512.708   1
  -7  11  12 2104.68 346.259   1
  11 -11  -7 12287.8 596.421  -2
  -7  11  11 12287.8 596.421   1
  -7  11  10 3720.85 373.984   1
   9 -11  -7 5679.58 480.526  -2
  -7  11   9 5679.58 480.526   1
   7  11  -8 731.832 175.605   1
  -7 -11   7 22.5086 87.4010  -2
   7  11  -7 22.5086 87.4010   1
  -7  11   6 10388.8 250.505   1
  -5 -11   7 1289.90 297.678  -2
   7  11  -5 1289.90 297.678   1
   7  11  -4 1522.80 236.178   1
  -3 -11   7 801.782 290.684  -2
   7  11  -3 801.782 290.684   1
   7  11  -2 6431.90 287.506   1
  -1 -11   7 1745.24 302.076  -2
   7  11  -1 1745.24 302.076   1
   1 -11   6 2997.17 316.637  -2
   7  11   0 2997.17 316.637   1
   7  11   1 3988.76 285.765   1
   3 -11   6 2179.35 315.375  -2
   7  11   2 2179.35 315.375   1
   7  11   3 922.322 249.634   1
   5 -11   6 786.760 313.543  -2
   7  11   4 786.760 313.543   1
   7  11   5 738.636 255.310   1
   7 -11   6 521.441 348.724  -2
   7  11   6 521.441 348.724   1
   7  11   7 12637.5 427.143   1
   9 -11   6 10155.5 528.723  -2
   7  11   8 10155.5 528.723   1
   7  11   9 11076.9 297.567   1
  11 -11   6 12389.7 396.744  -2
   7  11  10 12389.7 396.744   1
   7  11  11 143.067 149.185   1
  13 -11   6 26473.4 339.000  -2
   7  11  12 26473.4 339.000   1
  15 -11   5 10723.6 288.609  -2
   7  11  13 10723.6 288.609   1
   7  11  14 335.575 184.788   1
  17 -11   5 1445.68 257.934  -2
   7  11  15 1445.68 257.934   1
   7  11  16 3561.10 217.947   1
  19 -11   5 718.557 261.090  -2
   7  11  17 718.557 261.090   1
   7  11  18 35.5511 197.152   1
  21 -11   5 212.826 246.387  -2
   7  11  19 212.826 246.387   1
   7  11  20 1299.35 197.230   1
  23 -11   5 3329.60 261.941  -2
   7  11  21 3329.60 261.941   1
   7  11  22 1586.73 192.615   1
  25 -11   5 198.902 222.359  -2
   7  11  23 198.902 222.359   1
   7  11  24 112.991 133.088   1
   7  11  25 105.013 123.041   1
  29 -11   4 90.9758 169.919  -2
   7  11  26 90.9758 169.919   1
   7  11  27 459.457 117.161   1
  -7  13  26 55.7861 96.1696   1
  -7  13  25 65.8738 111.849   1
  25 -13  -8 356.838 165.452  -2
  -7  13  24 356.838 165.452   1
  -7  13  23 295.815 136.340   1
  23 -13  -8 637.568 195.395  -2
  -7  13  22 637.568 195.395   1
  -7  13  21 76.7041 156.192   1
   7  13  14 159.536 163.993   1
  17 -13   5 2000.61 216.691  -2
   7  13  15 2000.61 216.691   1
   7  13  16 141.506 155.248   1
  19 -13   5 2111.33 213.682  -2
   7  13  17 2111.33 213.682   1
   7  13  18 593.559 156.952   1
  21 -13   5 2688.82 211.905  -2
   7  13  19 2688.82 211.905   1
   7  13  20 975.547 149.029   1
  21 -15  -8 16.0831 39.5716  -2
  -7  15  20 16.0831 39.5716   1
  -7  15  19 460.689 114.523   1
  19 -15  -8 136.009 156.022  -2
  -7  15  18 136.009 156.022   1
  -7  15  17 108.990 135.566   1
 -38   0  10 103.883 291.588  -2
   8   0 -36 103.883 291.588   1
 -36   0  10 177.829 342.770  -2
   8   0 -34 177.829 342.770   1
 -34   0  10 790.142 369.895  -2
   8   0 -32 790.142 369.895   1
 -32   0  10 1356.53 373.515  -2
   8   0 -30 1356.53 373.515   1
 -30   0  10 3107.32 383.367  -2
   8   0 -28 3107.32 383.367   1
  -8   0  26 2612.94 306.912   1
  -8   0  24 458.223 256.233   1
  -8   0  22 10350.5 364.602   1
  -8   0  20 251.199 238.339   1
  -8   0  18 5988.29 294.679   1
  -8   0  16 15374.8 373.637   1
 -14   0   8 106028. 505.917  -2
   8   0 -14 106028. 505.917   1
 -12   0   8 62837.0 420.839  -2
   8   0 -12 62837.0 420.839   1
 -10   0   8 264028. 1011.39  -2
   8   0 -10 264028. 1011.39   1
  -8   0   8 333906. 213.998  -2
   8   0  -8 333906. 213.998   1
  -6   0   8 383641. 1169.60  -2
   8   0  -6 383641. 1169.60   1
  -4   0   8 565621. 1145.12  -2
   8   0  -4 565621. 1145.12   1
   8   0  -2 96568.7 494.540   1
   8   0   0 9435.52 211.707   1
   8   0   2 13846.2 211.934   1
   8   0   4 32935.3 261.712   1
   8   0   6 17312.5 116.082   1
  -8   0  -8 45723.8 130.254   1
  -8   0 -10 75418.1 194.647   1
   8   0  12 8336.87 128.868   1
 -18   0  -6 18469.8 610.638  -2
  -8   0 -16 18469.8 610.638   1
 -20   0  -6 14449.5 138.951  -2
  -8   0 -18 14449.5 138.951   1
 -22   0  -6 13717.0 166.067  -2
  -8   0 -20 13717.0 166.067   1
 -24   0  -6 20140.7 228.421  -2
  -8   0 -22 20140.7 228.421   1
  26   0   6 4979.68 189.029  -2
   8   0  24 4979.68 189.029   1
   8   0  26 1280.51 150.319   1
   8   0  28 298.748 138.979   1
   8   0  30 251.668 207.833   1
   8   0  32 1924.79 201.178   1
  -8   0 -34 780.281 117.219   1
   8   2 -37 146.443 120.068   1
 -38   2  10 458.908 190.915  -2
   8  -2 -36 458.908 190.915   1
   8   2 -35-48.2850 165.634   1
 -36  -2  10 233.849 231.902  -2
   8   2 -34 233.849 231.902   1
   8  -2 -33 354.606 181.151   1
 -34   2  10 514.402 250.772  -2
   8  -2 -32 514.402 250.772   1
   8   2 -31 1377.31 202.429   1
 -32  -2  10 636.719 256.225  -2
   8   2 -30 636.719 256.225   1
   8   2 -29 922.048 299.208   1
 -30  -2  10 589.952 365.492  -2
   8   2 -28 589.952 365.492   1
 -28  -2   9 1151.69 359.483  -2
   8   2 -27 1151.69 359.483   1
  -8   2  26 193.795 132.304   1
  26   2  -9 289.268 195.544  -2
  -8  -2  25 289.268 195.544   1
  -8  -2  24 109.547 146.865   1
  24   2  -9 2198.02 258.278  -2
  -8  -2  23 2198.02 258.278   1
  -8   2  22 2746.10 195.059   1
  22  -2  -9 1234.07 238.462  -2
  -8   2  21 1234.07 238.462   1
  -8  -2  20 505.311 177.120   1
  20   2  -9 12930.6 329.822  -2
  -8  -2  19 12930.6 329.822   1
  -8   2  18 252.553 251.773   1
  18  -2  -9 14989.8 451.694  -2
  -8   2  17 14989.8 451.694   1
   8   2 -16 6320.43 156.839   1
   8   2 -15 964.708 142.086   1
  16  -2  -9 6665.62 370.956  -2
  -8   2  15 6665.62 370.956   1
   8   2 -14 380.763 133.891   1
  14  -2  -8 1494.65 327.219  -2
  -8   2  14 1494.65 327.219   1
   8   2 -13 15572.7 205.994   1
  12  -2  -8 2283.46 135.726  -2
  -8   2  12 2283.46 135.726   1
   8  -2 -11 5831.75 123.237   1
 -10  -2   8 25764.7 225.937  -2
   8   2 -10 25764.7 225.937   1
   8  -2  -9 64079.0 267.352   1
  -8  -2   8 8183.08 165.958  -2
   8   2  -8 8183.08 165.958   1
  -8   2   7 12694.0 139.887   1
  -6   2   8 75403.6 324.436  -2
   8  -2  -6 75403.6 324.436   1
   8  -2  -5 2233.82 98.2492   1
  -4  -2   8 13174.0 152.009  -2
   8   2  -4 13174.0 152.009   1
   8  -2  -3 35244.1 180.273   1
   8   2  -2 20480.1 136.518   1
   8   2  -1 340.617 53.9288   1
   8   2   0 81499.8 158.020   1
  -8   2  -1 350.487 34.6691   1
   2   2   7 20689.7 199.166  -2
   8  -2   1 20689.7 199.166   1
   8  -2   2 79537.7 183.928   1
   4  -2   7 5943.47 94.0365  -2
   8   2   3 5943.47 94.0365   1
  -8  -2  -4 54099.3 186.191   1
   6  -2   7 10091.7 33.6041  -2
   8   2   5 10091.7 33.6041   1
   8   2   6 1186.12 65.1844   1
  -8   2  -7 19530.6 152.304  -2
  -8  -2  -7 19530.6 152.304   1
   8   2   8 39153.9 166.771   1
  10  -2   7 31871.0 183.113  -2
   8   2   9 31871.0 183.113   1
   8   2  10 6078.63 94.8558   1
  -8   2 -11 24602.3 191.567   1
  -8   2 -12 1916.80 164.136   1
 -14  -2  -6 3180.83 179.714  -2
  -8   2 -12 3180.83 179.714   1
  -8   2 -13 12715.6 160.196   1
 -16  -2  -6 12951.5 251.824  -2
  -8   2 -14 12951.5 251.824   1
  -8   2 -15 274.421 124.263   1
 -18  -2  -6 7629.13 326.202  -2
  -8   2 -16 7629.13 326.202   1
  -8   2 -17 222.500 77.3653   1
  20  -2   6 1887.54 93.1009  -2
   8   2  18 1887.54 93.1009   1
   8   2  19 10789.6 94.4282   1
  22   2   6 2114.29 100.810  -2
   8  -2  20 2114.29 100.810   1
   8  -2  21 9943.37 101.403   1
  24  -2   6 1906.72 108.325  -2
   8   2  22 1906.72 108.325   1
   8  -2  23 3108.95 93.7106   1
  26  -2   6 6499.88 149.246  -2
   8   2  24 6499.88 149.246   1
  28   2   5 3557.92 142.077  -2
   8  -2  25 3557.92 142.077   1
   8   2  26 7.68583 102.362   1
  30  -2   5 1702.05 135.581  -2
   8   2  27 1702.05 135.581   1
  -8  -2 -28 139.176 108.536   1
  32  -2   5 1165.40 142.507  -2
   8   2  29 1165.40 142.507   1
   8   2  30 58.1102 102.125   1
  34   2   5 177.322 77.2351  -2
   8  -2  31 177.322 77.2351   1
   8   2  32 147.526 108.336   1
  36  -2   5 425.857 161.511  -2
   8   2  33 425.857 161.511   1
   8   2  34 163.057 154.436   1
 -38  -4  10-13.0826 154.879  -2
   8   4 -36-13.0826 154.879   1
   8   4 -35 101.998 140.832   1
 -36  -4  10 201.478 198.277  -2
   8   4 -34 201.478 198.277   1
   8   4 -33 448.348 172.883   1
 -34   4  10 198.937 233.097  -2
   8  -4 -32 198.937 233.097   1
   8   4 -31 47.8804 187.736   1
  -8   4  30 277.919 142.760   1
 -32   4  10 414.749 248.953  -2
   8  -4 -30 414.749 248.953   1
   8   4 -29 119.457 133.376   1
  -8   4  28 106.202 143.913   1
 -30  -4  10 1933.74 380.522  -2
   8   4 -28 1933.74 380.522   1
  -8   4  27 302.594 157.025   1
 -28  -4   9 264.924 356.607  -2
   8   4 -27 264.924 356.607   1
  -8   4  26 316.141 128.374   1
  26  -4  -9 215.668 139.930  -2
  -8   4  25 215.668 139.930   1
   8   4 -24 151.761 104.394   1
 -24  -4   9 2170.47 146.393  -2
   8   4 -23 2170.47 146.393   1
  -8  -4  22 1896.66 151.733   1
 -22  -4   9 217.508 79.9554  -2
   8   4 -21 217.508 79.9554   1
  -8   4  20 171.208 120.351   1
  20  -4  -9 6015.62 182.977  -2
  -8   4  19 6015.62 182.977   1
   8  -4 -18 327.605 139.139   1
  18  -4  -9 8619.67 432.220  -2
  -8   4  17 8619.67 432.220   1
   8   4 -16 425.906 121.553   1
   8   4 -15 176.294 138.774   1
  16  -4  -9 441.594 343.434  -2
  -8   4  15 441.594 343.434   1
   8   4 -14 44876.5 409.655   1
  14  -4  -8 104125. 839.058  -2
  -8   4  14 104125. 839.058   1
   8   4 -13 5825.75 175.336   1
  12  -4  -8 36589.6 318.921  -2
  -8   4  12 36589.6 318.921   1
  -8   4  11 4042.93 291.887   1
  10  -4  -8 43258.9 639.269  -2
  -8   4  10 43258.9 639.269   1
   8  -4  -9 22421.9 268.935   1
  -8   4   8 17050.7 298.984  -2
   8  -4  -8 17050.7 298.984   1
  -8   4   7 15636.0 207.199   1
  -6  -4   8 60732.1 341.143  -2
   8   4  -6 60732.1 341.143   1
   8   4  -5 8211.98 103.256   1
   4  -4  -8 6289.47 107.724  -2
  -8   4   4 6289.47 107.724   1
   8   4  -3 4202.93 101.541   1
   8   4  -2 19358.6 188.478   1
   2   4  -8 18829.1 305.965  -2
  -8  -4   2 18829.1 305.965   1
   8  -4  -1 1023.67 100.313   1
   0   4  -7 14773.0 302.302  -2
  -8  -4   1 14773.0 302.302   1
   8  -4   0 6564.45 110.246   1
   8   4   1 1859.24 154.606   1
  -2   4  -7 2267.25 251.993  -2
  -8  -4  -1 2267.25 251.993   1
  -8  -4  -2 11738.8 146.161   1
  -4   4  -7 3279.24 68.4616  -2
  -8  -4  -3 3279.24 68.4616   1
   8   4   4 39203.4 196.562   1
  -6  -4  -7 24272.6 93.6179  -2
  -8   4  -5 24272.6 93.6179   1
  -8   4  -6 19806.7 219.441   1
  -8  -4  -7 1925.30 179.964  -2
  -8   4  -7 1925.30 179.964   1
  -8   4  -8 92487.8 459.874   1
  10  -4   7 3857.13 194.191  -2
   8   4   9 3857.13 194.191   1
   8   4  10 2168.93 101.043   1
 -12  -4  -7 18540.9 273.048  -2
  -8   4 -11 18540.9 273.048   1
  -8   4 -12 20156.8 436.476   1
  14  -4   6 19006.0 370.979  -2
   8   4  12 19006.0 370.979   1
  -8   4 -13 695.084 153.069   1
  16  -4   6 608.481 202.380  -2
   8   4  14 608.481 202.380   1
   8   4  15 5120.99 199.548   1
  18  -4   6 2680.26 103.663  -2
   8   4  16 2680.26 103.663   1
   8   4  17 5861.10 89.7913   1
 -20  -4  -6 9658.40 138.456  -2
  -8   4 -18 9658.40 138.456   1
   8  -4  19 329.358 88.0570   1
 -22  -4  -6 1277.99 124.586  -2
  -8   4 -20 1277.99 124.586   1
   8   4  21 217.362 112.480   1
 -24   4  -6 26055.6 230.774  -2
  -8  -4 -22 26055.6 230.774   1
   8   4  23 290.314 123.428   1
  26  -4   6 10342.7 196.162  -2
   8   4  24 10342.7 196.162   1
  28  -4   5 1266.52 166.414  -2
   8   4  25 1266.52 166.414   1
   8   4  26 2200.72 139.059   1
  30  -4   5 916.299 166.304  -2
   8   4  27 916.299 166.304   1
   8   4  28 273.165 120.074   1
 -32   4  -5 1092.45 143.779  -2
  -8  -4 -29 1092.45 143.779   1
   8  -4  30 2731.53 136.220   1
  34  -4   5 13.4534 239.684  -2
   8   4  31 13.4534 239.684   1
   8   4  32 2635.50 198.554   1
  36  -4   5 382.962 211.567  -2
   8   4  33 382.962 211.567   1
  -8   6  33 212.242 102.769   1
  34  -6 -10 270.429 126.128  -2
  -8   6  32 270.429 126.128   1
  -8   6  31 1368.36 108.369   1
 -32  -6  10 457.690 141.976  -2
   8   6 -30 457.690 141.976   1
   8   6 -29 869.417 119.126   1
  -8   6  28 424.479 137.788   1
 -30  -6  10 1712.45 366.125  -2
   8   6 -28 1712.45 366.125   1
  -8   6  27 197.438 169.173   1
 -28  -6   9 1609.49 360.363  -2
   8   6 -27 1609.49 360.363   1
  -8   6  26 84.5280 139.855   1
  26  -6  -9 963.158 187.025  -2
  -8   6  25 963.158 187.025   1
   8   6 -24 11.5607 272.528   1
 -24   6   9 367.083 232.908  -2
   8  -6 -23 367.083 232.908   1
   8  -6 -22 143.807 145.165   1
 -22  -6   9 468.192 100.774  -2
   8   6 -21 468.192 100.774   1
   8  -6 -20 4520.31 171.076   1
 -20   6   9 1057.92 187.917  -2
   8  -6 -19 1057.92 187.917   1
   8   6 -18 2327.77 146.404   1
 -18   6   9 3686.87 181.935  -2
   8  -6 -17 3686.87 181.935   1
   8  -6 -16 18123.5 197.648   1
   8   6 -15 168.367 153.755   1
 -16   6   9 3182.73 356.623  -2
   8  -6 -15 3182.73 356.623   1
 -14   6   8 49131.3 642.856  -2
   8  -6 -14 49131.3 642.856   1
   8  -6 -13 2798.31 294.248   1
 -12   6   8 29236.5 570.727  -2
   8  -6 -12 29236.5 570.727   1
   8  -6 -11 6325.92 304.809   1
 -10   6   8 6183.28 376.400  -2
   8  -6 -10 6183.28 376.400   1
   8  -6  -9 7125.11 291.598   1
  -8  -6   8 8414.22 86.0417  -2
   8   6  -8 8414.22 86.0417   1
   8   6  -7 48106.3 349.669   1
  -6  -6   8 21040.6 318.582  -2
   8   6  -6 21040.6 318.582   1
   8   6  -5 3106.17 151.152   1
  -4   6   8 65754.7 410.686  -2
   8  -6  -4 65754.7 410.686   1
   8  -6  -3 72.8203 119.414   1
   8   6  -2 2513.06 191.399   1
  -2   6   8 2955.57 263.540  -2
   8  -6  -2 2955.57 263.540   1
   8   6  -1 8798.26 251.828   1
  -8   6   0 73085.8 363.484   1
   2  -6   7 53998.3 302.995  -2
   8   6   1 53998.3 302.995   1
   8   6   2 3281.20 95.9693   1
   4  -6   7 4640.34 209.956  -2
   8   6   3 4640.34 209.956   1
   8   6   4 46.1528 127.898   1
   6  -6   7 54877.7 163.002  -2
   8   6   5 54877.7 163.002   1
   8   6   6 25088.7 277.149   1
   8  -6   7 27955.5 534.774  -2
   8   6   7 27955.5 534.774   1
   8   6   8 1134.41 202.530   1
  10  -6   7 10161.6 360.097  -2
   8   6   9 10161.6 360.097   1
   8   6  10 7752.58 301.103   1
  12  -6   7 45681.1 572.768  -2
   8   6  11 45681.1 572.768   1
  14  -6   6 2758.37 301.671  -2
   8   6  12 2758.37 301.671   1
   8  -6  13 6627.08 132.249   1
  16  -6   6 7887.07 131.516  -2
   8   6  14 7887.07 131.516   1
   8   6  15 10105.8 112.920   1
  18  -6   6 13188.5 169.111  -2
   8   6  16 13188.5 169.111   1
   8   6  17 1981.23 93.4387   1
  20  -6   6 4348.84 148.613  -2
   8   6  18 4348.84 148.613   1
   8   6  19 1776.85 109.912   1
 -22   6  -6 7686.94 183.802  -2
  -8  -6 -20 7686.94 183.802   1
   8   6  21 6136.00 150.293   1
  24  -6   6 3541.66 177.825  -2
   8   6  22 3541.66 177.825   1
   8   6  23 425.142 123.756   1
   8   6  24 4502.66 149.397   1
   8  -6  25 123.926 226.425   1
  28  -6   5 2629.88 201.894  -2
   8   6  25 2629.88 201.894   1
   8   6  26 644.979 150.440   1
  30  -6   5 1967.15 190.818  -2
   8   6  27 1967.15 190.818   1
   8   6  28 765.242 143.130   1
 -32   6  -5 1600.31 211.731  -2
  -8  -6 -29 1600.31 211.731   1
  -8  -6 -30 347.883 149.096   1
  34  -6   5 2.95238 222.458  -2
   8   6  31 2.95238 222.458   1
   8   6  32-22.6267 153.525   1
  34  -8 -10 168.168 149.565  -2
  -8   8  32 168.168 149.565   1
  -8   8  31-42.4485 130.320   1
  -8   8  30 3.93525 140.404   1
  -8   8  29 5.20481 150.977   1
  -8   8  28 578.237 173.263   1
  -8   8  27 730.756 174.532   1
  -8   8  26-23.0663 172.774   1
  26  -8  -9 2545.70 258.228  -2
  -8   8  25 2545.70 258.228   1
   8  -8 -20 336.789 276.668   1
 -20   8   9 12667.2 570.484  -2
   8  -8 -19 12667.2 570.484   1
   8  -8 -18 4903.02 361.948   1
 -18   8   9 7175.04 468.022  -2
   8  -8 -17 7175.04 468.022   1
   8  -8 -16 1070.16 189.200   1
 -16   8   9 5061.32 418.698  -2
   8  -8 -15 5061.32 418.698   1
 -14   8   8 5306.95 403.246  -2
   8  -8 -14 5306.95 403.246   1
   8  -8 -13 7150.84 349.154   1
 -12   8   8 18524.0 547.829  -2
   8  -8 -12 18524.0 547.829   1
   8  -8 -11 3153.68 283.079   1
 -10   8   8 18484.2 549.727  -2
   8  -8 -10 18484.2 549.727   1
   8  -8  -9 159.843 229.806   1
  -8   8   8 811.255 62.2769  -2
   8  -8  -8 811.255 62.2769   1
   8  -8  -7 1804.15 148.121   1
  -6  -8   8 4330.80 227.414  -2
   8   8  -6 4330.80 227.414   1
  -8   8   5 606.004 124.887   1
   4  -8  -8 592.789 158.506  -2
  -8   8   4 592.789 158.506   1
  -8   8   3 9910.12 196.869   1
  -2  -8   8 10228.2 213.022  -2
   8   8  -2 10228.2 213.022   1
   0  -8  -7 10143.1 206.448  -2
  -8   8   1 10143.1 206.448   1
  -8   8   0 23543.7 249.513   1
   2  -8   7 27360.7 539.072  -2
   8   8   1 27360.7 539.072   1
   8   8   2 54927.5 602.463   1
   4  -8   7 13172.7 316.751  -2
   8   8   3 13172.7 316.751   1
   8   8   4 14662.4 255.416   1
   6  -8   7 8759.61 285.857  -2
   8   8   5 8759.61 285.857   1
   8   8   6 11584.5 242.970   1
   8  -8   7 22805.3 412.010  -2
   8   8   7 22805.3 412.010   1
   8   8   8 38983.4 399.684   1
  10  -8   7 3042.59 242.910  -2
   8   8   9 3042.59 242.910   1
   8   8  10 6304.78 217.551   1
  12  -8   7 2873.27 159.681  -2
   8   8  11 2873.27 159.681   1
  14  -8   6 20547.9 266.084  -2
   8   8  12 20547.9 266.084   1
   8   8  13 1820.49 103.649   1
  16  -8   6 2475.15 135.767  -2
   8   8  14 2475.15 135.767   1
   8   8  15 1865.31 106.302   1
  18  -8   6 6669.40 169.445  -2
   8   8  16 6669.40 169.445   1
   8   8  17 6884.38 135.179   1
  20  -8   6 6676.97 195.749  -2
   8   8  18 6676.97 195.749   1
   8   8  19 1103.22 139.995   1
  22  -8   6 8082.12 228.726  -2
   8   8  20 8082.12 228.726   1
   8   8  21 70.0300 141.396   1
  24  -8   6 904.362 193.650  -2
   8   8  22 904.362 193.650   1
   8   8  23 143.231 145.412   1
   8   8  24 2802.64 155.065   1
  28  -8   5 1723.31 185.602  -2
   8   8  25 1723.31 185.602   1
   8   8  26 254.748 128.687   1
  30  -8   5 2100.77 255.663  -2
   8   8  27 2100.77 255.663   1
   8   8  28 5.30706 146.664   1
  32  -8   5 168.883 172.101  -2
   8   8  29 168.883 172.101   1
   8   8  30 438.022 148.790   1
  34  -8   5 163.760 164.979  -2
   8   8  31 163.760 164.979   1
  -8  10  30 46.8128 108.623   1
  -8  10  29 22.9714 128.068   1
  -8  10  28 42.6031 140.308   1
  -8  10  27-3.66803 145.351   1
  -8  10  26 230.907 161.149   1
  26 -10  -9 338.091 224.120  -2
  -8  10  25 338.091 224.120   1
  -8  10  24 475.465 178.749   1
  -8  10  16 11970.4 553.033   1
  16 -10  -9 4581.40 525.380  -2
  -8  10  15 4581.40 525.380   1
  14 -10  -8 1564.86 451.137  -2
  -8  10  14 1564.86 451.137   1
  -8  10  13 434.379 358.995   1
  12 -10  -8 9056.49 543.216  -2
  -8  10  12 9056.49 543.216   1
  -8  10  11 63.2006 301.959   1
  10 -10  -8 60.4752 347.944  -2
  -8  10  10 60.4752 347.944   1
  -8  10   9 837.589 251.211   1
  -8 -10   8 186.324 189.748  -2
   8  10  -8 186.324 189.748   1
  -8  10   7 3151.20 175.633   1
  -6 -10   8 3792.45 231.449  -2
   8  10  -6 3792.45 231.449   1
   8  10  -5 564.426 143.700   1
   4 -10  -8 17675.2 320.147  -2
  -8  10   4 17675.2 320.147   1
   8  10  -3 183.198 195.566   1
  -2 -10   8 5166.14 306.638  -2
   8  10  -2 5166.14 306.638   1
   0 -10   7 12694.9 385.318  -2
   8  10  -1 12694.9 385.318   1
   8  10   0 1332.72 223.453   1
   2 -10   7 977.326 290.881  -2
   8  10   1 977.326 290.881   1
   8  10   2 19153.6 421.369   1
   4 -10   7 3381.79 350.741  -2
   8  10   3 3381.79 350.741   1
   8  10   4 5544.76 312.213   1
   6 -10   7 7086.10 433.336  -2
   8  10   5 7086.10 433.336   1
   8  10   6 115.273 245.624   1
   8 -10   7 29396.4 717.192  -2
   8  10   7 29396.4 717.192   1
   8  10   8 9138.71 261.233   1
  10 -10   7 15923.3 399.629  -2
   8  10   9 15923.3 399.629   1
   8  10  10 5182.81 155.682   1
  12 -10   7 6551.31 196.248  -2
   8  10  11 6551.31 196.248   1
  14 -10   6 26708.8 276.222  -2
   8  10  12 26708.8 276.222   1
   8  10  13 928.657 146.256   1
  16 -10   6 18628.2 352.106  -2
   8  10  14 18628.2 352.106   1
   8  10  15 4482.31 224.264   1
  18 -10   6 2642.00 286.366  -2
   8  10  16 2642.00 286.366   1
   8  10  17 5925.30 240.442   1
  20 -10   6 156.312 260.692  -2
   8  10  18 156.312 260.692   1
   8  10  19 1339.67 207.220   1
  22 -10   6 3241.86 183.725  -2
   8  10  20 3241.86 183.725   1
   8  10  21 748.037 126.557   1
  24 -10   6 706.666 252.153  -2
   8  10  22 706.666 252.153   1
   8  10  23 391.203 185.735   1
   8  10  24 290.614 187.647   1
 -28  10  -5 532.269 186.541  -2
  -8 -10 -25 532.269 186.541   1
  -8 -10 -26 277.752 136.913   1
 -30  10  -5 1836.87 164.508  -2
  -8 -10 -27 1836.87 164.508   1
   8  10  28 221.020 132.852   1
  -8  12  27 18.2206 109.757   1
  -8  12  26-2.49283 121.289   1
  26 -12  -9 739.454 179.690  -2
  -8  12  25 739.454 179.690   1
  -8  12  24 426.769 144.596   1
  24 -12  -9 761.858 201.604  -2
  -8  12  23 761.858 201.604   1
  -6 -12   8 4821.65 437.608  -2
   8  12  -6 4821.65 437.608   1
   8  12  -5 207.794 238.469   1
  -4 -12   8 7551.79 397.463  -2
   8  12  -4 7551.79 397.463   1
   8  12  -3 8560.34 352.361   1
  -2 -12   8 5376.16 357.789  -2
   8  12  -2 5376.16 357.789   1
   0 -12   7 1068.91 304.581  -2
   8  12  -1 1068.91 304.581   1
   8  12   0 1625.37 239.330   1
   2 -12   7 5710.40 409.715  -2
   8  12   1 5710.40 409.715   1
   8  12   2 8356.23 351.495   1
   4 -12   7 10691.6 498.398  -2
   8  12   3 10691.6 498.398   1
   8  12   4 1127.06 256.156   1
  14 -12   6 1519.57 230.796  -2
   8  12  12 1519.57 230.796   1
   8  12  13 1921.49 180.884   1
  16 -12   6 10406.0 274.102  -2
   8  12  14 10406.0 274.102   1
   8  12  15 339.260 164.893   1
  18 -12   6 1104.13 232.187  -2
   8  12  16 1104.13 232.187   1
   8  12  17 2964.01 194.847   1
  20 -12   6 900.542 227.963  -2
   8  12  18 900.542 227.963   1
   8  12  19-46.7764 167.182   1
  22 -12   6 1539.61 220.792  -2
   8  12  20 1539.61 220.792   1
  -8 -12 -21 809.750 136.090   1
  24 -12   6 401.195 167.032  -2
   8  12  22 401.195 167.032   1
  -8 -12 -23 64.0100 116.735   1
   8  12  24 950.721 132.888   1
  24 -14  -9 424.939 138.455  -2
  -8  14  23 424.939 138.455   1
  -8  14  22 29.2265 114.530   1
  22 -14  -9 828.289 175.025  -2
  -8  14  21 828.289 175.025   1
  -8  14  20 2755.70 159.242   1
 -39  -1  11 88.7494 174.116  -2
   9   1 -37 88.7494 174.116   1
   9  -1 -36 23.6102 146.594   1
 -37  -1  11 125.015 218.903  -2
   9   1 -35 125.015 218.903   1
   9   1 -34 308.039 181.137   1
 -35  -1  11 106.434 244.484  -2
   9   1 -33 106.434 244.484   1
   9  -1 -32 74.8759 194.009   1
 -33  -1  11 553.747 256.904  -2
   9   1 -31 553.747 256.904   1
   9  -1 -30 130.631 202.206   1
   9   1 -29 210.311 204.442   1
   9   1 -28 1144.41 199.972   1
   9   1 -27 11.5486 283.275   1
  27   1 -10 1340.59 209.185  -2
  -9  -1  26 1340.59 209.185   1
   9   1 -25 158.935 150.030   1
  25   1 -10 1997.24 266.182  -2
  -9  -1  24 1997.24 266.182   1
  -9   1  23 19.9769 179.001   1
  23   1 -10 3484.06 273.765  -2
  -9  -1  22 3484.06 273.765   1
  -9  -1  21 10852.9 259.911   1
  21   1 -10 3890.12 268.744  -2
  -9  -1  20 3890.12 268.744   1
  -9  -1  19 441.700 170.128   1
  19   1 -10 7097.15 257.971  -2
  -9  -1  18 7097.15 257.971   1
  -9   1  17 11197.8 241.013   1
   9   1 -16 226.105 85.3563   1
  -9   1  15 75215.8 687.282   1
 -15  -1   9 112071. 386.573  -2
   9   1 -15 112071. 386.573   1
  -9   1  14 77.4739 98.1019   1
 -13   1   9 5861.56 146.373  -2
   9  -1 -13 5861.56 146.373   1
   9  -1 -12 5960.96 127.440   1
 -11   1   9 13960.4 215.865  -2
   9  -1 -11 13960.4 215.865   1
   9   1 -10 1750.65 112.476   1
  -9   1   9 1274.95 152.707  -2
   9  -1  -9 1274.95 152.707   1
   9  -1  -8 65517.3 322.945   1
  -7   1   9 12336.4 219.993  -2
   9  -1  -7 12336.4 219.993   1
   9  -1  -6 83296.2 355.376   1
  -5  -1   9 6515.84 183.891  -2
   9   1  -5 6515.84 183.891   1
   9   1  -4 10760.7 168.207   1
   9   1  -3 4869.93 137.083   1
   9   1  -2 4157.70 182.250   1
  -1   1   8 4820.53 236.653  -2
   9  -1  -2 4820.53 236.653   1
   9   1  -1 3452.56 124.868   1
   1   1   8 34138.4 257.722  -2
   9  -1   0 34138.4 257.722   1
   9   1   1 75893.9 248.593   1
   9  -1   2 3164.85 58.8675   1
   3  -1   8 5652.34 121.083  -2
   9   1   2 5652.34 121.083   1
   9  -1   3 59055.2 212.124   1
   5  -1   8 2209.40 42.5930  -2
   9   1   4 2209.40 42.5930   1
   9   1   5 139.487 55.7084   1
   7   1   8 6413.92 99.0435  -2
   9  -1   6 6413.92 99.0435   1
   9   1   7 2888.92 57.6048   1
   9  -1   8 5404.87 88.0731  -2
   9   1   8 5404.87 88.0731   1
  -9  -1  -9 661.978 52.8296   1
  -9  -1 -10 1700.77 134.032   1
  11  -1   8 2764.08 105.040  -2
   9   1  10 2764.08 105.040   1
  -9  -1 -11 5451.70 159.536   1
  13  -1   7 6527.88 116.987  -2
   9   1  11 6527.88 116.987   1
  -9  -1 -12 13193.2 147.222   1
 -15   1  -7 5922.22 135.827  -2
  -9  -1 -13 5922.22 135.827   1
  -9   1 -14 6887.24 192.339   1
 -17  -1  -7 17677.7 323.304  -2
  -9   1 -15 17677.7 323.304   1
  -9   1 -16 1984.64 220.937   1
  19   1   7 49672.9 246.909  -2
   9  -1  17 49672.9 246.909   1
   9  -1  18 33539.3 129.683   1
  21  -1   7 1605.16 93.3788  -2
   9   1  19 1605.16 93.3788   1
   9  -1  20 12514.9 102.465   1
  23   1   7 9471.12 122.154  -2
   9  -1  21 9471.12 122.154   1
   9  -1  22 3854.87 89.9621   1
   9  -1  23 1152.36 178.448   1
  25  -1   7 5101.44 131.774  -2
   9   1  23 5101.44 131.774   1
   9  -1  24 1126.94 177.677   1
  27   1   6 2224.10 135.018  -2
   9  -1  24 2224.10 135.018   1
   9  -1  25 1303.53 107.447   1
  29  -1   6 555.086 135.608  -2
   9   1  26 555.086 135.608   1
   9   1  27 987.866 105.486   1
  31  -1   6 988.087 120.626  -2
   9   1  28 988.087 120.626   1
   9   1  29 101.465 116.046   1
  33  -1   6 1822.13 77.4685  -2
   9   1  30 1822.13 77.4685   1
   9  -1  31 82.5686 142.876   1
  35  -1   6 664.637 172.624  -2
   9   1  32 664.637 172.624   1
  -9   1 -33 40.9249 97.3728   1
  37  -1   6 1350.98 205.330  -2
   9   1  34 1350.98 205.330   1
   9  -3 -36 609.861 139.440   1
 -37  -3  11 35.5490 90.2352  -2
   9   3 -35 35.5490 90.2352   1
   9   3 -34 129.495 168.441   1
 -35  -3  11 300.932 225.665  -2
   9   3 -33 300.932 225.665   1
   9  -3 -32 195.829 184.702   1
 -33   3  11 132.545 250.962  -2
   9  -3 -31 132.545 250.962   1
   9   3 -30 267.255 197.411   1
   9   3 -29 167.774 202.862   1
   9   3 -28 366.544 266.246   1
   9   3 -27 746.993 281.765   1
  27  -3 -10 950.595 170.032  -2
  -9   3  26 950.595 170.032   1
   9  -3 -25 163.963 95.3103   1
 -25  -3  10 3896.02 142.104  -2
   9   3 -24 3896.02 142.104   1
  -9   3  23 450.168 99.3899   1
 -23  -3  10 4198.00 217.280  -2
   9   3 -22 4198.00 217.280   1
  -9   3  21 85.4253 134.373   1
  21  -3 -10 1731.44 185.745  -2
  -9   3  20 1731.44 185.745   1
   9   3 -19 1193.64 171.862   1
  19  -3 -10 30741.8 577.511  -2
  -9   3  18 30741.8 577.511   1
  -9   3  17 838.855 266.428   1
   9   3 -16 433.926 135.725   1
  17  -3 -10 1298.86 335.791  -2
  -9   3  16 1298.86 335.791   1
   9   3 -15 1465.79 156.544   1
  15  -3  -9 6008.07 382.969  -2
  -9   3  15 6008.07 382.969   1
   9   3 -14 1786.22 139.515   1
  13  -3  -9 32337.5 304.792  -2
  -9   3  13 32337.5 304.792   1
  -9   3  12 289.267 134.537   1
 -11  -3   9 19715.7 285.223  -2
   9   3 -11 19715.7 285.223   1
   9   3 -10 2038.42 85.1506   1
  -9  -3   9 19753.5 196.007  -2
   9   3  -9 19753.5 196.007   1
   9   3  -8 22939.5 146.722   1
   7  -3  -9 17175.1 195.207  -2
  -9   3   7 17175.1 195.207   1
  -9  -3   6 4051.84 107.911   1
   5   3  -9 36924.7 220.146  -2
  -9  -3   5 36924.7 220.146   1
  -9  -3   4 2779.99 74.6545   1
   9  -3  -3 30217.5 216.421   1
   3  -3  -9 36168.7 193.303  -2
  -9   3   3 36168.7 193.303   1
  -9   3   2 55373.1 200.439   1
   1   3  -8 55325.7 302.169  -2
  -9  -3   2 55325.7 302.169   1
   9  -3  -1 2776.78 60.4248   1
   9   3   0 2508.44 153.002   1
   1   3   8 42703.4 238.247  -2
   9  -3   0 42703.4 238.247   1
   9  -3   1 11292.5 112.025   1
  -3   3  -8 41515.6 344.330  -2
  -9  -3  -2 41515.6 344.330   1
  -9  -3  -3 18071.5 199.419   1
  -5   3  -8 34543.3 100.605  -2
  -9  -3  -4 34543.3 100.605   1
  -9  -3  -5 210.289 86.5578   1
   7  -3   8 22059.4 180.765  -2
   9   3   6 22059.4 180.765   1
   9   3   7 10995.4 118.456   1
  -9   3  -8 28731.3 185.876  -2
  -9  -3  -8 28731.3 185.876   1
   9   3   9 477.123 76.5971   1
 -11  -3  -8 7935.30 119.430  -2
  -9   3 -10 7935.30 119.430   1
  13  -3   7 6514.93 206.776  -2
   9   3  11 6514.93 206.776   1
  -9   3 -12 12508.1 137.229   1
  15  -3   7 7642.45 165.979  -2
   9   3  13 7642.45 165.979   1
   9   3  14 6947.81 133.457   1
 -17  -3  -7 5968.07 237.245  -2
  -9   3 -15 5968.07 237.245   1
   9   3  16 3331.84 77.3371   1
  19  -3   7 7411.95 128.039  -2
   9   3  17 7411.95 128.039   1
   9   3  18 20864.9 133.796   1
 -21  -3  -7 1121.72 115.399  -2
  -9   3 -19 1121.72 115.399   1
   9   3  20 7835.90 116.319   1
  23  -3   7 8921.03 149.613  -2
   9   3  21 8921.03 149.613   1
   9   3  22 578.706 100.570   1
  25  -3   7 3516.02 163.911  -2
   9   3  23 3516.02 163.911   1
  27   3   6 1469.29 167.216  -2
   9  -3  24 1469.29 167.216   1
   9   3  25 97.7837 127.816   1
  29  -3   6 373.185 163.239  -2
   9   3  26 373.185 163.239   1
   9   3  27 135.040 127.461   1
  31  -3   6 1100.62 165.543  -2
   9   3  28 1100.62 165.543   1
   9   3  29 43.8735 106.324   1
 -33   3  -6 17.5530 127.213  -2
  -9  -3 -30 17.5530 127.213   1
   9   3  31 261.902 135.696   1
  35  -3   6 303.600 167.097  -2
   9   3  32 303.600 167.097   1
   9   3  33 90.2838 162.176   1
 -37  -5  11 449.736 234.234  -2
   9   5 -35 449.736 234.234   1
   9   5 -34 32.1652 137.474   1
 -35   5  11 79.1244 108.895  -2
   9  -5 -33 79.1244 108.895   1
   9   5 -32 212.249 164.089   1
  -9   5  31 39.4135 135.111   1
 -33  -5  11 324.740 225.243  -2
   9   5 -31 324.740 225.243   1
  -9   5  30 100.110 111.643   1
  -9   5  29 103.039 127.559   1
 -31  -5  11 348.459 336.052  -2
   9   5 -29 348.459 336.052   1
   9   5 -28 739.869 121.093   1
   9   5 -27 177.250 137.095   1
  27  -5 -10 2643.76 184.337  -2
  -9   5  26 2643.76 184.337   1
  -9   5  25 148.484 139.060   1
  25  -5 -10 3795.90 163.140  -2
  -9   5  24 3795.90 163.140   1
   9  -5 -23 458.937 146.106   1
  23   5 -10 7178.37 240.134  -2
  -9  -5  22 7178.37 240.134   1
   9   5 -21 7401.10 226.342   1
 -21  -5  10 2649.86 243.922  -2
   9   5 -20 2649.86 243.922   1
   9   5 -19 129.961 130.342   1
 -19  -5  10 2172.98 175.596  -2
   9   5 -18 2172.98 175.596   1
   9  -5 -17 290.467 113.168   1
   9   5 -16 1841.45 169.424   1
  17  -5 -10 2759.61 250.588  -2
  -9   5  16 2759.61 250.588   1
   9   5 -15 12014.2 261.373   1
 -15   5   9 34295.5 404.952  -2
   9  -5 -15 34295.5 404.952   1
   9  -5 -14 5079.97 153.864   1
 -13   5   9 851.872 156.530  -2
   9  -5 -13 851.872 156.530   1
  -9   5  12 1299.91 182.830   1
  11  -5  -9 6315.15 268.533  -2
  -9   5  11 6315.15 268.533   1
   9  -5 -10 195.886 157.968   1
  -9   5   9 26148.6 375.998  -2
   9  -5  -9 26148.6 375.998   1
  -9   5   8 1822.44 147.726   1
  -7   5   9 17822.5 273.069  -2
   9  -5  -7 17822.5 273.069   1
   9  -5  -6 7722.42 174.240   1
  -5   5   9 78735.5 407.588  -2
   9  -5  -5 78735.5 407.588   1
   9   5  -4 212.841 118.057   1
   9   5  -3 30546.0 375.828   1
  -3   5   9 41113.5 420.848  -2
   9  -5  -3 41113.5 420.848   1
   9   5  -2 504.897 167.666   1
  -1   5   8 614.213 210.283  -2
   9  -5  -2 614.213 210.283   1
   9  -5  -1 2996.11 132.724   1
   1  -5   8 2725.47 158.877  -2
   9   5   0 2725.47 158.877   1
   9   5   1 34655.6 401.485   1
   3  -5   8 8030.74 148.706  -2
   9   5   2 8030.74 148.706   1
  -9   5  -3 28595.6 198.315   1
   5  -5   8 13721.0 208.183  -2
   9   5   4 13721.0 208.183   1
   9   5   5 27761.8 212.079   1
  -7  -5  -8 7148.00 181.808  -2
  -9   5  -6 7148.00 181.808   1
   9   5   7 3565.31 120.046   1
   9  -5   8 15826.8 211.958  -2
   9   5   8 15826.8 211.958   1
  -9   5  -9 1799.93 117.506   1
  11  -5   8 3334.77 150.578  -2
   9   5  10 3334.77 150.578   1
 -13  -5  -7 8240.14 239.413  -2
  -9   5 -11 8240.14 239.413   1
   9   5  12 7066.04 213.688   1
  15  -5   7 2486.11 226.276  -2
   9   5  13 2486.11 226.276   1
   9   5  14 6546.18 85.0061   1
  17  -5   7 17734.2 149.103  -2
   9   5  15 17734.2 149.103   1
   9   5  16 1317.56 85.7547   1
  19  -5   7 18296.9 168.619  -2
   9   5  17 18296.9 168.619   1
   9   5  18 5558.82 105.213   1
  21   5   7 7058.71 155.712  -2
   9  -5  19 7058.71 155.712   1
   9   5  20 1676.48 118.625   1
 -23   5  -7 7991.54 177.826  -2
  -9  -5 -21 7991.54 177.826   1
   9   5  22 1498.53 132.489   1
   9   5  23 2979.08 161.880   1
  25   5   7 3738.45 347.856  -2
   9  -5  23 3738.45 347.856   1
  27  -5   6 152.410 165.867  -2
   9   5  24 152.410 165.867   1
   9   5  25 341.931 126.709   1
  29  -5   6 805.011 166.411  -2
   9   5  26 805.011 166.411   1
   9   5  27 93.2618 122.191   1
  31  -5   6 156.521 150.216  -2
   9   5  28 156.521 150.216   1
   9   5  29 330.788 116.896   1
 -33   5  -6 566.686 201.817  -2
  -9  -5 -30 566.686 201.817   1
   9   5  31 220.325 178.572   1
  35  -5   6 1268.67 225.688  -2
   9   5  32 1268.67 225.688   1
   9   5  33 28.1303 135.129   1
  -9   7  32 135.366 126.677   1
  -9   7  31 72.8038 134.519   1
 -33  -7  11 309.723 265.001  -2
   9   7 -31 309.723 265.001   1
  -9   7  30 114.772 126.359   1
  -9   7  29 207.516 155.098   1
 -31  -7  11 608.949 302.534  -2
   9   7 -29 608.949 302.534   1
  -9   7  28 114.747 130.557   1
  -9   7  27-40.7237 144.406   1
 -27  -7  10 1110.68 194.829  -2
   9   7 -26 1110.68 194.829   1
   9   7 -25 841.164 153.972   1
 -25  -7  10 2295.87 367.080  -2
   9   7 -24 2295.87 367.080   1
   9   7 -23 1168.92 282.574   1
 -23  -7  10 3666.52 271.923  -2
   9   7 -22 3666.52 271.923   1
   9   7 -21 1408.59 193.378   1
 -21  -7  10 230.790 96.0641  -2
   9   7 -20 230.790 96.0641   1
   9   7 -19 182.823 191.290   1
 -19  -7  10 24680.3 357.364  -2
   9   7 -18 24680.3 357.364   1
   9  -7 -17 6487.72 216.313   1
   9   7 -16 717.309 177.954   1
 -17  -7  10 2737.98 243.000  -2
   9   7 -16 2737.98 243.000   1
   9   7 -15 92.0786 179.701   1
 -15   7   9 2311.20 349.500  -2
   9  -7 -15 2311.20 349.500   1
   9  -7 -14 520.798 259.544   1
 -13   7   9 15582.7 505.027  -2
   9  -7 -13 15582.7 505.027   1
   9  -7 -12 534.232 256.122   1
 -11   7   9 8056.24 426.445  -2
   9  -7 -11 8056.24 426.445   1
   9  -7 -10 9028.27 335.853   1
  -9   7   9 1132.94 317.114  -2
   9  -7  -9 1132.94 317.114   1
   9   7  -8 23217.4 284.001   1
  -7   7   9 5177.12 230.171  -2
   9  -7  -7 5177.12 230.171   1
   9   7  -6 19779.2 263.224   1
  -5  -7   9 1863.96 189.940  -2
   9   7  -5 1863.96 189.940   1
   9   7  -4 8125.74 192.206   1
   9   7  -3 570.421 186.026   1
  -3   7   9 1040.77 266.740  -2
   9  -7  -3 1040.77 266.740   1
   9   7  -2 47583.9 515.761   1
  -9   7   1 11656.0 192.114   1
  -1  -7  -8 53241.9 353.845  -2
  -9   7   0 53241.9 353.845   1
   9   7   1 3291.40 229.022   1
   3  -7   8 14778.6 427.824  -2
   9   7   2 14778.6 427.824   1
   9   7   3 9177.27 201.639   1
   5  -7   8 5749.89 240.473  -2
   9   7   4 5749.89 240.473   1
   9   7   5 3385.16 175.150   1
   7  -7   8 7028.90 251.983  -2
   9   7   6 7028.90 251.983   1
   9   7   7 446.599 143.632   1
   9  -7   8 3463.05 205.789  -2
   9   7   8 3463.05 205.789   1
   9   7   9 1460.22 161.322   1
  11  -7   8 6308.88 241.348  -2
   9   7  10 6308.88 241.348   1
  13  -7   7 12368.1 189.340  -2
   9   7  11 12368.1 189.340   1
   9   7  12 1434.13 85.5620   1
  15  -7   7 10539.4 149.238  -2
   9   7  13 10539.4 149.238   1
   9   7  14 3443.20 97.8800   1
  17  -7   7 5268.37 143.482  -2
   9   7  15 5268.37 143.482   1
   9   7  16 567.507 90.9838   1
  19  -7   7 1502.99 138.944  -2
   9   7  17 1502.99 138.944   1
   9  -7  18 6883.34 137.963   1
  21   7   7 8536.88 201.358  -2
   9  -7  19 8536.88 201.358   1
   9   7  20 3027.09 136.625   1
  23  -7   7 4060.65 205.010  -2
   9   7  21 4060.65 205.010   1
   9   7  22 585.253 147.712   1
   9   7  23 1005.17 153.154   1
  27  -7   6 262.834 192.504  -2
   9   7  24 262.834 192.504   1
   9   7  25 990.763 146.345   1
  29  -7   6 463.669 181.895  -2
   9   7  26 463.669 181.895   1
   9   7  27 555.695 138.328   1
  31  -7   6 1422.80 258.003  -2
   9   7  28 1422.80 258.003   1
  -9  -7 -29 727.539 149.304   1
  33  -7   6 35.4743 64.4338  -2
   9   7  30 35.4743 64.4338   1
   9   7  31 229.350 147.067   1
  -9   9  31 506.483 116.847   1
  -9   9  30 368.365 139.114   1
  -9   9  29 36.1893 144.147   1
  -9   9  28 1387.31 163.334   1
  -9   9  27 3044.84 178.991   1
  27  -9 -10 553.427 227.189  -2
  -9   9  26 553.427 227.189   1
  -9   9  25 78.6512 177.206   1
  19  -9 -10 634.747 471.426  -2
  -9   9  18 634.747 471.426   1
   9  -9 -17 210.694 232.852   1
 -17   9  10 1886.09 434.766  -2
   9  -9 -16 1886.09 434.766   1
 -15   9   9 5485.96 469.717  -2
   9  -9 -15 5485.96 469.717   1
   9  -9 -14 3087.67 354.150   1
 -13   9   9 4654.25 450.357  -2
   9  -9 -13 4654.25 450.357   1
   9  -9 -12 3026.93 312.550   1
 -11   9   9 8579.00 491.365  -2
   9  -9 -11 8579.00 491.365   1
  -9   9  10 760.113 195.011   1
  -9   9   9 541.726 236.093  -2
   9  -9  -9 541.726 236.093   1
  -9   9   8 5154.71 202.168   1
  -7  -9   9 14712.6 335.971  -2
   9   9  -7 14712.6 335.971   1
  -9   9   6 2215.24 157.437   1
  -5  -9   9 23400.1 356.149  -2
   9   9  -5 23400.1 356.149   1
  -9   9   4 7467.90 197.490   1
  -3  -9   9 8365.38 227.588  -2
   9   9  -3 8365.38 227.588   1
  -1  -9   8 4846.58 287.993  -2
   9   9  -2 4846.58 287.993   1
   9   9  -1 7216.07 279.548   1
   1  -9   8 6811.26 335.004  -2
   9   9   0 6811.26 335.004   1
   9   9   1 9263.29 322.353   1
   3  -9   8 1014.83 294.649  -2
   9   9   2 1014.83 294.649   1
   9   9   3 9823.02 336.963   1
   5  -9   8 5424.12 378.197  -2
   9   9   4 5424.12 378.197   1
   9   9   5 17453.0 408.279   1
   7  -9   8 1664.84 313.960  -2
   9   9   6 1664.84 313.960   1
   9   9   7 404.163 166.791   1
   9  -9   8 19781.1 370.214  -2
   9   9   8 19781.1 370.214   1
   9   9   9 360.279 178.812   1
   9   9  10 278.848 165.664   1
  11  -9   8 125.123 114.465  -2
   9   9  10 125.123 114.465   1
  13  -9   7 2090.39 165.665  -2
   9   9  11 2090.39 165.665   1
   9   9  12 1431.31 133.921   1
  15  -9   7 7143.33 213.320  -2
   9   9  13 7143.33 213.320   1
   9   9  14 1625.51 146.652   1
  17  -9   7 1068.58 140.473  -2
   9   9  15 1068.58 140.473   1
   9   9  16 2547.80 139.141   1
  19  -9   7 3286.43 189.019  -2
   9   9  17 3286.43 189.019   1
   9   9  18-23.2459 132.394   1
  21  -9   7 1969.98 183.723  -2
   9   9  19 1969.98 183.723   1
   9   9  20 1754.57 144.556   1
  23  -9   7 2917.11 190.984  -2
   9   9  21 2917.11 190.984   1
   9   9  22 3641.89 155.322   1
   9   9  23 3637.32 147.855   1
  27  -9   6 41.1551 84.7754  -2
   9   9  24 41.1551 84.7754   1
   9   9  25 72.1432 182.742   1
  29  -9   6 1115.76 235.616  -2
   9   9  26 1115.76 235.616   1
  -9  -9 -27 181.561 139.745   1
  31  -9   6 919.119 163.775  -2
   9   9  28 919.119 163.775   1
   9   9  29-23.2497 134.067   1
  -9  11  29 36.6527 100.131   1
  -9  11  28 47.2428 117.386   1
  -9  11  27 126.292 133.571   1
  27 -11 -10 193.317 184.043  -2
  -9  11  26 193.317 184.043   1
  -9  11  25 154.128 154.570   1
  25 -11 -10 773.798 212.706  -2
  -9  11  24 773.798 212.706   1
  -9  11  12 2197.13 403.755   1
  11 -11  -9 13650.7 655.665  -2
  -9  11  11 13650.7 655.665   1
  -9  11  10 1218.92 352.338   1
   9 -11  -9 4400.25 479.845  -2
  -9  11   9 4400.25 479.845   1
  -9  11   8 4443.33 357.168   1
  -7 -11   9 5155.66 379.965  -2
   9  11  -7 5155.66 379.965   1
   9  11  -6 4762.49 286.820   1
  -5 -11   9 9292.58 393.855  -2
   9  11  -5 9292.58 393.855   1
   9  11  -4 1173.30 244.457   1
  -3 -11   9 1123.30 287.652  -2
   9  11  -3 1123.30 287.652   1
  -1 -11   8 14062.5 431.632  -2
   9  11  -2 14062.5 431.632   1
   9  11  -1 70.4776 221.189   1
   1 -11   8 8576.57 412.682  -2
   9  11   0 8576.57 412.682   1
   9  11   1 1806.34 250.989   1
   3 -11   8 3785.35 367.675  -2
   9  11   2 3785.35 367.675   1
   9  11   3 1848.12 267.456   1
   5 -11   8 5677.52 439.474  -2
   9  11   4 5677.52 439.474   1
   9  11   5 25795.2 535.349   1
   7 -11   8 11171.7 527.458  -2
   9  11   6 11171.7 527.458   1
   9  11   7 2934.54 290.547   1
   9 -11   8 4845.60 450.043  -2
   9  11   8 4845.60 450.043   1
   9  11   9 1882.03 311.333   1
   9  11  12 1722.84 182.230   1
  15 -11   7 606.026 229.360  -2
   9  11  13 606.026 229.360   1
   9  11  14 278.336 182.002   1
  17 -11   7 397.607 232.424  -2
   9  11  15 397.607 232.424   1
   9  11  16 443.533 188.667   1
  19 -11   7 218.839 242.763  -2
   9  11  17 218.839 242.763   1
   9  11  18 2640.91 198.875   1
  21 -11   7 507.443 237.039  -2
   9  11  19 507.443 237.039   1
   9  11  20 2414.56 201.134   1
  23 -11   7 492.961 225.408  -2
   9  11  21 492.961 225.408   1
   9  11  22 56.8313 165.085   1
   9  11  23 428.464 167.131   1
  27 -11   6 702.288 168.329  -2
   9  11  24 702.288 168.329   1
   9  11  25 623.509 122.685   1
  -9  13  25 71.2611 109.225   1
  25 -13 -10 531.881 160.023  -2
  -9  13  24 531.881 160.023   1
  -9  13  23 415.012 131.319   1
  23 -13 -10 342.718 183.409  -2
  -9  13  22 342.718 183.409   1
  -9  15  19 214.007 109.439   1
  19 -15 -10 483.064 151.390  -2
  -9  15  18 483.064 151.390   1
 -38   0  12 34.0357 281.626  -2
  10   0 -36 34.0357 281.626   1
 -36   0  12 394.294 331.723  -2
  10   0 -34 394.294 331.723   1
 -34   0  12 2587.75 375.104  -2
  10   0 -32 2587.75 375.104   1
  10   0 -30 260.497 274.258   1
  10   0 -28 531.471 287.144   1
 -10   0  26 184.630 188.169   1
 -10   0  24 2602.68 199.811   1
 -10   0  22 794.716 262.382   1
 -10   0  20 47.8486 232.266   1
 -10   0  18 10536.8 342.943   1
  10   0 -16 1727.11 130.826   1
 -14   0  10 4944.40 221.397  -2
  10   0 -14 4944.40 221.397   1
 -12   0  10 114854. 739.240  -2
  10   0 -12 114854. 739.240   1
 -10   0  10 20938.3 380.813  -2
  10   0 -10 20938.3 380.813   1
  -8   0  10 226281. 1006.92  -2
  10   0  -8 226281. 1006.92   1
  -6   0  10 131852. 634.201  -2
  10   0  -6 131852. 634.201   1
  10   0  -4 15825.1 271.729   1
  10   0  -2 4768.32 199.199   1
  10   0   0 9766.37 226.700   1
  10   0   2 47456.3 377.447   1
  10   0   4 44301.1 333.838   1
  10   0   6 82501.0 419.837   1
  10   0   8 37573.9 228.773   1
 -10   0 -10 2589.39 207.954   1
 -14   0  -8 74742.2 619.324  -2
 -10   0 -12 74742.2 619.324   1
 -16   0  -8 43482.0 622.237  -2
 -10   0 -14 43482.0 622.237   1
  18   0   8 13416.2 272.011  -2
  10   0  16 13416.2 272.011   1
 -20   0  -8 9297.66 148.332  -2
 -10   0 -18 9297.66 148.332   1
  22   0   8 5847.43 141.385  -2
  10   0  20 5847.43 141.385   1
  24   0   8 2255.36 137.355  -2
  10   0  22 2255.36 137.355   1
  10   0  24 6977.58 174.136   1
  10   0  26 1496.85 153.194   1
  10   0  28 291.659 140.361   1
  10   0  30 2120.59 231.588   1
  10   0  32 395.784 192.086   1
  10  -2 -37 116.453 119.422   1
 -38   2  12-5.66286 184.743  -2
  10  -2 -36-5.66286 184.743   1
  10  -2 -35 307.387 165.150   1
 -36  -2  12 26.3719 118.907  -2
  10   2 -34 26.3719 118.907   1
  10  -2 -33 67.8404 184.004   1
 -34   2  12 154.116 240.930  -2
  10  -2 -32 154.116 240.930   1
  10  -2 -31 88.1710 196.309   1
  10   2 -30 12.3533 204.265   1
  10  -2 -29 919.056 200.834   1
  10  -2 -28 33.5119 208.399   1
 -28  -2  11 2029.47 375.042  -2
  10   2 -27 2029.47 375.042   1
 -10   2  26 156.488 154.354   1
  26  -2 -11 1068.40 203.500  -2
 -10   2  25 1068.40 203.500   1
  10   2 -24 288.145 148.567   1
 -24  -2  11 7202.68 246.211  -2
  10   2 -23 7202.68 246.211   1
 -10   2  22 1066.14 147.379   1
  22  -2 -11 1176.69 185.186  -2
 -10   2  21 1176.69 185.186   1
 -10   2  20 97.0563 130.044   1
 -20  -2  11 3126.11 177.566  -2
  10   2 -19 3126.11 177.566   1
 -10   2  18 4077.99 310.435   1
 -10   2  17 1190.01 261.643   1
 -10   2  16 271.159 118.826   1
  10   2 -15 247.094 118.560   1
  14  -2 -10 13897.1 189.202  -2
 -10   2  14 13897.1 189.202   1
  10  -2 -13 37802.5 237.796   1
  12  -2 -10 7789.65 185.508  -2
 -10   2  12 7789.65 185.508   1
  10  -2 -11 24211.7 201.903   1
  10  -2 -10 20739.3 91.3463  -2
 -10   2  10 20739.3 91.3463   1
  10   2  -9 2277.33 116.539   1
  -8  -2  10 26692.2 247.296  -2
  10   2  -8 26692.2 247.296   1
 -10   2   7 4338.33 121.601   1
   6  -2 -10 1609.76 136.022  -2
 -10   2   6 1609.76 136.022   1
  10   2  -5 17756.1 165.507   1
  10   2  -4 7878.12 166.344   1
  10   2  -3 453.213 162.841   1
  -2   2   9 3206.98 259.182  -2
  10  -2  -3 3206.98 259.182   1
  10  -2  -2 30730.7 193.244   1
   0  -2   9 11409.1 115.141  -2
  10   2  -1 11409.1 115.141   1
  10  -2   0 1572.58 53.3319   1
   2  -2   9 2441.46 53.8776  -2
  10   2   1 2441.46 53.8776   1
 -10  -2  -2 112.101 47.1551   1
  -4   2  -9 24704.3 103.227  -2
 -10  -2  -3 24704.3 103.227   1
  10   2   4 7938.38 99.4706   1
  -6   2  -9 13719.4 145.210  -2
 -10  -2  -5 13719.4 145.210   1
  10   2   6 24535.9 173.386   1
  -8   2  -9 32715.0 208.051  -2
 -10  -2  -7 32715.0 208.051   1
  10   2   8 49.9521 67.5236   1
  10   2   9 44194.6 237.043   1
 -10   2  -9 86999.5 377.892  -2
 -10  -2  -9 86999.5 377.892   1
  10   2  10 7865.95 167.232   1
  12  -2   8 10579.9 208.584  -2
  10   2  10 10579.9 208.584   1
 -10   2 -11 14803.8 133.517   1
 -14   2  -8 9831.93 134.425  -2
 -10  -2 -12 9831.93 134.425   1
  10   2  13 634.916 94.5678   1
 -16  -2  -8 15762.4 228.042  -2
 -10   2 -14 15762.4 228.042   1
 -10   2 -15 31742.3 582.622   1
 -18  -2  -8 1119.30 80.0930  -2
 -10   2 -16 1119.30 80.0930   1
  10   2  17 7847.38 86.9577   1
  20  -2   8 2186.62 96.4666  -2
  10   2  18 2186.62 96.4666   1
  10  -2  19 115.923 72.4161   1
 -22  -2  -8 2407.72 106.543  -2
 -10   2 -20 2407.72 106.543   1
  10  -2  21 843.447 88.5918   1
  24  -2   7 1267.31 267.906  -2
  10   2  21 1267.31 267.906   1
  24   2   8 1640.13 112.310  -2
  10  -2  22 1640.13 112.310   1
 -10   2 -23 6834.47 226.561   1
  26   2   7 19150.6 175.639  -2
  10  -2  23 19150.6 175.639   1
  10   2  24 227.992 104.447   1
  28  -2   7 373.686 134.399  -2
  10   2  25 373.686 134.399   1
  10   2  26 995.074 105.025   1
  30  -2   7 1595.98 136.775  -2
  10   2  27 1595.98 136.775   1
  10   2  28 186.624 120.592   1
  32  -2   7 1168.43 141.863  -2
  10   2  29 1168.43 141.863   1
  10   2  30 105.977 98.1998   1
  34   2   7 1932.76 191.153  -2
  10  -2  31 1932.76 191.153   1
  10  -2  32 369.233 128.726   1
  36  -2   7 1088.62 218.172  -2
  10   2  33 1088.62 218.172   1
 -38  -4  12-91.5044 220.324  -2
  10   4 -36-91.5044 220.324   1
  10   4 -35 7.55464 138.242   1
 -36   4  12 77.1674 194.649  -2
  10  -4 -34 77.1674 194.649   1
  10   4 -33 6.37578 164.609   1
 -34   4  12 524.448 225.424  -2
  10  -4 -32 524.448 225.424   1
  10   4 -31 65.8001 183.917   1
  10  -4 -30 200.380 250.078   1
 -32  -4  12 854.380 366.749  -2
  10   4 -30 854.380 366.749   1
  10   4 -29 169.608 188.720   1
  10   4 -28 405.703 114.091   1
 -28  -4  11 536.792 171.372  -2
  10   4 -27 536.792 171.372   1
 -10   4  26 58.0143 121.043   1
 -26  -4  11 292.645 136.854  -2
  10   4 -25 292.645 136.854   1
 -10  -4  24 149.572 97.9191   1
 -24   4  11 614.930 166.817  -2
  10  -4 -23 614.930 166.817   1
 -10  -4  22 1156.10 128.970   1
 -22   4  11 471.124 158.219  -2
  10  -4 -21 471.124 158.219   1
 -10   4  20 943.822 143.091   1
  20  -4 -11 533.084 176.941  -2
 -10   4  19 533.084 176.941   1
 -10   4  18 902.211 166.059   1
  18  -4 -11 2367.22 352.514  -2
 -10   4  17 2367.22 352.514   1
  10   4 -16 5467.17 206.195   1
  16  -4 -10 13032.1 453.364  -2
 -10   4  16 13032.1 453.364   1
  10   4 -15 6065.54 177.726   1
  14  -4 -10 2729.66 192.379  -2
 -10   4  14 2729.66 192.379   1
 -10   4  13 8495.60 195.508   1
 -12  -4  10 5122.59 233.502  -2
  10   4 -12 5122.59 233.502   1
 -10   4  11 953.924 149.336   1
  10  -4 -10 160260. 233.782  -2
 -10   4  10 160260. 233.782   1
 -10   4   9 324.649 121.914   1
   8   4 -10 43633.8 300.647  -2
 -10  -4   8 43633.8 300.647   1
 -10  -4   7 711.846 102.107   1
   6   4 -10 35754.0 238.181  -2
 -10  -4   6 35754.0 238.181   1
  10  -4  -5 2303.55 89.7892   1
  10   4  -4 53636.6 457.998   1
   4  -4 -10 53351.7 237.390  -2
 -10   4   4 53351.7 237.390   1
  10   4  -3 2516.51 180.124   1
  -2   4   9 5444.69 170.816  -2
  10  -4  -3 5444.69 170.816   1
  10   4  -2 36048.6 213.433   1
   0   4   9 4810.36 134.119  -2
  10  -4  -1 4810.36 134.119   1
 -10  -4   0 8570.64 126.071   1
   2  -4   9 20283.2 203.950  -2
  10   4   1 20283.2 203.950   1
 -10  -4  -2 9815.84 186.489   1
   4  -4   9 46892.2 438.165  -2
  10   4   3 46892.2 438.165   1
  10   4   4 393.658 126.981   1
  -6   4  -9 26121.3 271.914  -2
 -10  -4  -5 26121.3 271.914   1
  10   4   6 80551.2 349.012   1
  -8   4  -9 4468.89 117.625  -2
 -10  -4  -7 4468.89 117.625   1
  10   4   8 6046.41 107.685   1
  10  -4   9 49974.6 231.087  -2
  10   4   9 49974.6 231.087   1
  10   4  10 69648.2 443.826   1
 -12  -4  -8 92490.3 379.829  -2
 -10   4 -10 92490.3 379.829   1
 -10   4 -11 19109.8 198.387   1
  14  -4   8 2559.58 145.974  -2
  10   4  12 2559.58 145.974   1
  10   4  13 6273.48 142.812   1
  16  -4   8 7267.00 128.917  -2
  10   4  14 7267.00 128.917   1
  10  -4  15 3270.94 81.4756   1
  18   4   8 5232.35 118.186  -2
  10  -4  16 5232.35 118.186   1
  10  -4  17 240.553 87.8339   1
  20  -4   8 5252.86 136.619  -2
  10   4  18 5252.86 136.619   1
  10   4  19 2302.85 99.2668   1
  22  -4   8 14882.9 171.827  -2
  10   4  20 14882.9 171.827   1
 -10  -4 -21 823.967 103.849   1
  10   4  22 5508.17 170.273   1
  24   4   8 6998.81 380.777  -2
  10  -4  22 6998.81 380.777   1
  26   4   7 4257.50 181.406  -2
  10  -4  23 4257.50 181.406   1
  10  -4  24 1662.07 133.462   1
  28  -4   7 1159.27 176.537  -2
  10   4  25 1159.27 176.537   1
  10  -4  26 2969.63 143.096   1
  30  -4   7 39.3866 88.9059  -2
  10   4  27 39.3866 88.9059   1
  10   4  28 2851.34 132.760   1
  32   4   7 348.695 70.5115  -2
  10  -4  29 348.695 70.5115   1
  10   4  30 1582.08 104.521   1
  34  -4   7 130.762 244.859  -2
  10   4  31 130.762 244.859   1
  10   4  32 38.3936 172.126   1
  36  -4   7 614.725 202.597  -2
  10   4  33 614.725 202.597   1
  10   6 -33 106.638 195.772   1
 -34  -6  12 381.703 279.280  -2
  10   6 -32 381.703 279.280   1
  10  -6 -31 81.3720 98.2666   1
  10   6 -30 93.6185 105.078   1
 -10   6  29 576.457 117.430   1
 -10   6  28 63.8297 116.796   1
 -28  -6  11 2642.91 160.080  -2
  10   6 -27 2642.91 160.080   1
 -10   6  26 99.9269 121.586   1
  26  -6 -11 5052.47 176.443  -2
 -10   6  25 5052.47 176.443   1
  10   6 -24 144.389 282.117   1
  24   6 -11 3864.55 238.521  -2
 -10  -6  23 3864.55 238.521   1
  10  -6 -22 156.790 181.208   1
 -22   6  11 81.0151 238.405  -2
  10  -6 -21 81.0151 238.405   1
  10  -6 -20 680.055 192.412   1
 -20  -6  11 5935.47 261.652  -2
  10   6 -19 5935.47 261.652   1
  10  -6 -18 678.534 180.634   1
 -18  -6  11 9288.00 260.558  -2
  10   6 -17 9288.00 260.558   1
  10   6 -16 6495.03 242.719   1
 -16   6  10 9035.19 417.733  -2
  10  -6 -16 9035.19 417.733   1
  10  -6 -15 402.566 141.359   1
 -14  -6  10 16105.7 293.258  -2
  10   6 -14 16105.7 293.258   1
  10   6 -13 11992.2 234.822   1
 -12   6  10 7508.01 420.785  -2
  10  -6 -12 7508.01 420.785   1
  10  -6 -11 1334.89 265.271   1
 -10   6  10 56001.6 812.597  -2
  10  -6 -10 56001.6 812.597   1
  10  -6  -9 49884.9 573.796   1
  -8   6  10 6082.42 367.535  -2
  10  -6  -8 6082.42 367.535   1
  10  -6  -7 14575.8 230.443   1
  -6  -6  10 31351.8 329.213  -2
  10   6  -6 31351.8 329.213   1
  10   6  -5 9525.72 198.672   1
  10   6  -4 13367.2 305.686   1
  -4   6  10 16908.6 365.185  -2
  10  -6  -4 16908.6 365.185   1
  10   6  -3 2108.65 205.817   1
  -2   6   9 2118.72 250.923  -2
  10  -6  -3 2118.72 250.923   1
  10   6  -2 12974.7 206.093   1
   0  -6   9 11014.5 327.451  -2
  10   6  -1 11014.5 327.451   1
  10   6   0 1613.02 198.560   1
   2  -6   9 4696.05 303.975  -2
  10   6   1 4696.05 303.975   1
  10   6   2 4817.92 238.420   1
   4  -6   9 27264.7 538.074  -2
  10   6   3 27264.7 538.074   1
  10   6   4 52237.0 384.012   1
   6  -6   9 21917.3 343.758  -2
  10   6   5 21917.3 343.758   1
  10   6   6 6992.23 190.789   1
   8  -6   9 12646.8 266.046  -2
  10   6   7 12646.8 266.046   1
  10   6   8 877.165 146.410   1
  10  -6   9 51412.2 410.587  -2
  10   6   9 51412.2 410.587   1
  12  -6   8 9149.79 237.839  -2
  10   6  10 9149.79 237.839   1
  10   6  11 1631.32 125.574   1
  14  -6   8 987.953 92.9898  -2
  10   6  12 987.953 92.9898   1
  10   6  13 4120.83 85.2552   1
  16  -6   8 8262.68 131.006  -2
  10   6  14 8262.68 131.006   1
  10   6  15 695.416 81.7935   1
  18  -6   8 8883.70 157.756  -2
  10   6  16 8883.70 157.756   1
  10   6  17 433.504 97.8665   1
  20  -6   8 14481.4 191.512  -2
  10   6  18 14481.4 191.512   1
  10   6  19 188.862 116.235   1
  22   6   8 6139.89 187.191  -2
  10  -6  20 6139.89 187.191   1
  10   6  21 69.8990 126.383   1
  10   6  22 1540.75 149.263   1
  24   6   8 1482.51 350.056  -2
  10  -6  22 1482.51 350.056   1
  26  -6   7 6129.77 188.307  -2
  10   6  23 6129.77 188.307   1
  10  -6  24 193.288 129.939   1
  28   6   7 2785.22 177.036  -2
  10  -6  25 2785.22 177.036   1
  10   6  26 2554.98 155.923   1
  30  -6   7 2040.96 194.146  -2
  10   6  27 2040.96 194.146   1
  10   6  28 6.63821 128.519   1
 -32   6  -7 412.256 204.019  -2
 -10  -6 -29 412.256 204.019   1
  10   6  30 164.398 147.684   1
  34  -6   7 3441.57 227.696  -2
  10   6  31 3441.57 227.696   1
  10   6  32 57.7535 138.601   1
 -10   8  32 310.681 125.442   1
 -10   8  31 58.7912 124.854   1
 -10   8  30 56.7384 132.668   1
 -10   8  29 4.81789 143.913   1
 -10   8  28 404.549 161.142   1
  28  -8 -11 352.837 175.802  -2
 -10   8  27 352.837 175.802   1
  10   8 -26 169.422 143.272   1
  26  -8 -11 569.695 191.327  -2
 -10   8  25 569.695 191.327   1
  10   8 -24 552.676 263.894   1
 -24  -8  11 1144.61 361.798  -2
  10   8 -23 1144.61 361.798   1
  10   8 -22-28.6631 269.529   1
 -22  -8  11 1012.79 354.433  -2
  10   8 -21 1012.79 354.433   1
  10   8 -20 2967.09 214.219   1
 -20   8  11-23.5585 249.897  -2
  10  -8 -19-23.5585 249.897   1
  10  -8 -18 185.949 185.919   1
 -18  -8  11 2099.15 258.489  -2
  10   8 -17 2099.15 258.489   1
  10   8 -16 2250.32 234.475   1
 -16   8  10 2959.69 424.811  -2
  10  -8 -16 2959.69 424.811   1
  10   8 -15 5456.48 172.871   1
  10   8 -14-26.7082 266.571   1
 -14   8  10 245.025 369.457  -2
  10  -8 -14 245.025 369.457   1
  10  -8 -13 2249.18 297.770   1
 -12   8  10 3113.61 402.995  -2
  10  -8 -12 3113.61 402.995   1
  10  -8 -11 206.770 240.306   1
 -10   8  10 379.958 310.769  -2
  10  -8 -10 379.958 310.769   1
  10  -8  -9-23.5183 244.196   1
  -8   8  10 18224.2 538.357  -2
  10  -8  -8 18224.2 538.357   1
  10   8  -7 13391.8 249.994   1
  -6  -8  10 33757.3 404.148  -2
  10   8  -6 33757.3 404.148   1
  10  -8  -5 109.508 138.893   1
  -4  -8  10 18239.0 394.693  -2
  10   8  -4 18239.0 394.693   1
   2  -8  -9 1102.51 161.153  -2
 -10   8   3 1102.51 161.153   1
  10   8  -2 131.097 115.407   1
   0  -8   9 2233.50 274.540  -2
  10   8  -1 2233.50 274.540   1
  10   8   0 2200.05 216.008   1
   2  -8   9 7545.46 377.006  -2
  10   8   1 7545.46 377.006   1
  10   8   2 4316.35 254.925   1
   4  -8   9 10084.1 422.299  -2
  10   8   3 10084.1 422.299   1
  10   8   4 20751.4 415.344   1
   6  -8   9 36466.0 691.245  -2
  10   8   5 36466.0 691.245   1
  10   8   6 46897.8 426.600   1
   8  -8   9 1883.83 223.906  -2
  10   8   7 1883.83 223.906   1
  10   8   8 5622.87 215.195   1
  10  -8   9 8520.74 283.106  -2
  10   8   9 8520.74 283.106   1
  12  -8   8 11009.2 196.985  -2
  10   8  10 11009.2 196.985   1
  10   8  11 1532.47 99.4373   1
  14  -8   8 19639.8 195.280  -2
  10   8  12 19639.8 195.280   1
  10   8  13 318.041 96.8053   1
  16  -8   8 6809.48 162.589  -2
  10   8  14 6809.48 162.589   1
  10   8  15 5192.22 123.888   1
  18  -8   8 4354.76 165.604  -2
  10   8  16 4354.76 165.604   1
  10   8  17 454.037 121.625   1
  20  -8   8 8133.57 220.775  -2
  10   8  18 8133.57 220.775   1
  10   8  19 1160.80 142.952   1
  22  -8   8 3405.52 196.508  -2
  10   8  20 3405.52 196.508   1
  10   8  21 3245.23 159.683   1
  10   8  22 2373.27 157.742   1
  26  -8   7 1189.92 190.114  -2
  10   8  23 1189.92 190.114   1
  10   8  24 294.491 138.717   1
  28  -8   7 1774.92 179.851  -2
  10   8  25 1774.92 179.851   1
  10   8  26 89.1125 125.887   1
  30  -8   7 343.153 242.817  -2
  10   8  27 343.153 242.817   1
 -10  -8 -28 816.300 141.885   1
 -32   8  -7 229.503 162.826  -2
 -10  -8 -29 229.503 162.826   1
  10   8  30 239.809 129.392   1
 -10  10  30 84.3360 109.151   1
 -10  10  29 235.300 124.952   1
 -10  10  28 100.617 135.273   1
  28 -10 -11 313.142 186.490  -2
 -10  10  27 313.142 186.490   1
 -10  10  26 655.071 156.432   1
  26 -10 -11 415.243 218.931  -2
 -10  10  25 415.243 218.931   1
 -10  10  15 916.426 372.020   1
  14 -10 -10 7576.04 558.065  -2
 -10  10  14 7576.04 558.065   1
 -10  10  13 3655.28 408.478   1
  12 -10 -10 10381.8 608.338  -2
 -10  10  12 10381.8 608.338   1
 -10  10  11 375.479 329.037   1
  10 -10 -10 1206.91 417.817  -2
 -10  10  10 1206.91 417.817   1
 -10  10   9 349.389 288.986   1
   8 -10 -10 753.561 333.684  -2
 -10  10   8 753.561 333.684   1
  10  10  -7 141.620 149.763   1
  -6 -10  10 2307.51 212.999  -2
  10  10  -6 2307.51 212.999   1
  10  10  -5 3221.20 255.911   1
  -4 -10  10 1748.54 281.311  -2
  10  10  -4 1748.54 281.311   1
  -2 -10   9 7319.56 329.674  -2
  10  10  -3 7319.56 329.674   1
  10  10  -2 385.447 199.818   1
   0 -10   9 1640.28 292.861  -2
  10  10  -1 1640.28 292.861   1
  10  10   0 10771.7 346.230   1
   2 -10   9 1641.76 309.124  -2
  10  10   1 1641.76 309.124   1
  10  10   2 8646.17 348.300   1
   4 -10   9 20564.5 596.600  -2
  10  10   3 20564.5 596.600   1
  10  10   4 13148.7 390.822   1
   6 -10   9 8512.60 460.675  -2
  10  10   5 8512.60 460.675   1
  10  10   6 246.964 241.285   1
   8 -10   9 16489.7 585.388  -2
  10  10   7 16489.7 585.388   1
  10  10   8 1705.20 269.427   1
  10  10   9 5378.55 333.320   1
  12 -10   8 21413.5 621.622  -2
  10  10  10 21413.5 621.622   1
  10  10  11 1466.22 152.625   1
  14 -10   8 32117.5 332.142  -2
  10  10  12 32117.5 332.142   1
  10  10  13 2089.30 191.229   1
  16 -10   8 4220.63 266.407  -2
  10  10  14 4220.63 266.407   1
  10  10  15 3244.80 210.541   1
  18 -10   8 2543.73 272.989  -2
  10  10  16 2543.73 272.989   1
  10  10  17 266.269 190.000   1
  20 -10   8 15301.0 354.525  -2
  10  10  18 15301.0 354.525   1
  10  10  19 2600.44 139.754   1
  22 -10   8 2740.12 174.141  -2
  10  10  20 2740.12 174.141   1
  10  10  21 528.241 118.279   1
  10  10  22 301.943 115.363   1
  26 -10   7 668.343 238.066  -2
  10  10  23 668.343 238.066   1
  10  10  24 1338.02 173.036   1
  28 -10   7 1157.46 211.511  -2
  10  10  25 1157.46 211.511   1
  10  10  26 88.0394 121.629   1
 -30  10  -7 1521.37 146.378  -2
 -10 -10 -27 1521.37 146.378   1
 -10  12  27-3.65729 100.766   1
 -10  12  26 68.0234 115.443   1
  26 -12 -11 140.397 167.451  -2
 -10  12  25 140.397 167.451   1
 -10  12  24 200.007 139.486   1
  24 -12 -11 298.280 196.484  -2
 -10  12  23 298.280 196.484   1
  -2 -12   9 11854.3 461.114  -2
  10  12  -3 11854.3 461.114   1
  10  12  -2 2992.11 278.035   1
   0 -12   9 226.188 281.808  -2
  10  12  -1 226.188 281.808   1
  10  12   0 5835.32 318.346   1
  18 -12   8 1824.07 224.534  -2
  10  12  16 1824.07 224.534   1
  10  12  17 25.5458 157.763   1
  20 -12   8 5187.00 236.880  -2
  10  12  18 5187.00 236.880   1
  10  12  19 458.937 160.906   1
 -10 -12 -22 101.508 207.208   1
 -10 -12 -23 200.180 184.940   1
  24 -14 -11 91.7106 128.034  -2
 -10  14  23 91.7106 128.034   1
 -10  14  22 44.2008 113.181   1
  22 -14 -11 257.251 158.271  -2
 -10  14  21 257.251 158.271   1
 -39  -1  13 110.147 165.278  -2
  11   1 -37 110.147 165.278   1
  11  -1 -36 285.502 149.696   1
 -37   1  13 20.2160 87.0573  -2
  11  -1 -35 20.2160 87.0573   1
  11   1 -34-10.4092 173.283   1
 -35   1  13 201.498 247.259  -2
  11  -1 -33 201.498 247.259   1
  11   1 -32-101.055 197.283   1
  11   1 -31 84.7428 199.842   1
  11   1 -30 32.6153 203.179   1
  11   1 -29 104.540 195.848   1
 -29   1  12 621.147 263.089  -2
  11  -1 -28 621.147 263.089   1
  11  -1 -27 2013.86 208.847   1
  27  -1 -12 309.958 173.700  -2
 -11   1  26 309.958 173.700   1
 -11  -1  25-8.00967 130.373   1
  25  -1 -12 927.199 172.928  -2
 -11   1  24 927.199 172.928   1
 -11  -1  23 5862.63 150.565   1
 -23  -1  12 578.331 186.946  -2
  11   1 -22 578.331 186.946   1
 -11  -1  21 1665.18 146.132   1
  21   1 -12 6997.03 209.606  -2
 -11  -1  20 6997.03 209.606   1
 -11   1  19 1707.38 139.497   1
 -11   1  18 750.970 166.666   1
 -11   1  17 32876.0 290.739   1
 -17   1  11 39160.9 388.911  -2
  11  -1 -17 39160.9 388.911   1
 -11   1  16 1799.69 109.695   1
 -15  -1  11 13650.1 190.911  -2
  11   1 -15 13650.1 190.911   1
  11  -1 -14 5690.62 134.307   1
  13  -1 -11 5898.08 172.159  -2
 -11   1  13 5898.08 172.159   1
  11   1 -12 3581.38 140.928   1
 -11   1  11 18034.7 270.558  -2
  11  -1 -11 18034.7 270.558   1
  11   1 -10 2019.97 130.414   1
  -9   1  11 14894.9 231.990  -2
  11  -1  -9 14894.9 231.990   1
  11  -1  -8 2079.06 129.223   1
  -7   1  11 3100.11 171.770  -2
  11  -1  -7 3100.11 171.770   1
  11   1  -6 1635.66 130.501   1
  11  -1  -5 559.904 123.104   1
  -3   1  10 3573.43 176.789  -2
  11  -1  -4 3573.43 176.789   1
  11  -1  -3 19502.1 210.367   1
  -1  -1  10 16991.3 227.443  -2
  11   1  -2 16991.3 227.443   1
  11  -1  -1 6015.64 147.370   1
   1   1  10 323.824 150.650  -2
  11  -1   0 323.824 150.650   1
  11   1   1 5056.98 76.7858   1
   3  -1  10 16443.9 114.896  -2
  11   1   2 16443.9 114.896   1
  11   1   3 76.0567 73.0529   1
   5  -1  10 5723.41 129.536  -2
  11   1   4 5723.41 129.536   1
  11  -1   5 10376.5 105.906   1
   7  -1  10 16959.0 138.369  -2
  11   1   6 16959.0 138.369   1
  11   1   7 15559.2 116.525   1
 -11  -1  -8 422.760 103.736   1
   9  -1  10 2238.16 149.245  -2
  11   1   8 2238.16 149.245   1
  11   1   9 1010.56 99.2180   1
  11  -1   9 1751.13 123.219  -2
  11   1   9 1751.13 123.219   1
 -11  -1 -10 3575.07 163.135   1
 -13   1  -9 7538.07 221.385  -2
 -11  -1 -11 7538.07 221.385   1
 -11  -1 -12 4817.59 174.961   1
 -15   1  -9 5896.80 227.389  -2
 -11  -1 -13 5896.80 227.389   1
 -11  -1 -14 90.8133 127.944   1
  17   1   9 10140.7 167.768  -2
  11  -1  15 10140.7 167.768   1
  11  -1  16 16663.1 101.381   1
  19  -1   9 8552.83 103.647  -2
  11   1  17 8552.83 103.647   1
  11  -1  18 7871.55 81.6315   1
  21   1   9 10328.0 110.972  -2
  11  -1  19 10328.0 110.972   1
  11   1  20 4001.33 89.5032   1
  23   1   8 5115.74 216.218  -2
  11  -1  20 5115.74 216.218   1
  23   1   9 23075.6 132.688  -2
  11  -1  21 23075.6 132.688   1
  11  -1  22 2135.50 195.672   1
  25   1   8 4261.81 130.953  -2
  11  -1  22 4261.81 130.953   1
  11  -1  23 2476.91 95.8944   1
  27   1   8 451.990 118.606  -2
  11  -1  24 451.990 118.606   1
  11  -1  25 409.665 103.142   1
  29  -1   8 3169.24 147.195  -2
  11   1  26 3169.24 147.195   1
  11   1  27 58.6205 101.827   1
  31   1   8 2880.31 140.202  -2
  11  -1  28 2880.31 140.202   1
  11   1  29 35.6542 115.859   1
  33   1   8 318.752 144.208  -2
  11  -1  30 318.752 144.208   1
  11   1  31 339.417 142.041   1
  35  -1   8 1738.38 176.267  -2
  11   1  32 1738.38 176.267   1
  11   1  33 246.157 111.574   1
  11   3 -36 168.712 126.271   1
 -37  -3  13 50.5076 109.927  -2
  11   3 -35 50.5076 109.927   1
  11   3 -34 122.286 156.283   1
 -35   3  13 608.919 224.920  -2
  11  -3 -33 608.919 224.920   1
  11  -3 -32-31.1830 181.823   1
  11   3 -31 413.348 195.137   1
  11  -3 -30 40.0859 201.569   1
  11   3 -29 257.449 192.186   1
 -29  -3  12 189.880 145.741  -2
  11   3 -28 189.880 145.741   1
  11  -3 -27 56.5850 193.625   1
 -27  -3  12 1971.70 262.585  -2
  11   3 -26 1971.70 262.585   1
 -11   3  25 194.866 116.425   1
  25  -3 -12 957.023 171.853  -2
 -11   3  24 957.023 171.853   1
 -11   3  23 1353.14 154.281   1
  23  -3 -12 454.500 186.860  -2
 -11   3  22 454.500 186.860   1
 -11   3  21 28.9044 138.509   1
 -21  -3  12 15003.3 290.976  -2
  11   3 -20 15003.3 290.976   1
 -11   3  19 1034.57 175.540   1
 -11   3  18 1148.54 263.272   1
 -19  -3  12 6021.07 296.368  -2
  11   3 -18 6021.07 296.368   1
 -11   3  17 2703.90 147.148   1
  11   3 -16 210.615 128.208   1
 -15  -3  11 3599.55 199.251  -2
  11   3 -15 3599.55 199.251   1
  11   3 -14 37667.3 324.158   1
  13  -3 -11 6234.32 240.205  -2
 -11   3  13 6234.32 240.205   1
  11   3 -12 2363.44 155.918   1
  11  -3 -11 1326.18 201.191  -2
 -11   3  11 1326.18 201.191   1
 -11  -3  10 6791.63 112.704   1
   9   3 -11 18628.4 192.081  -2
 -11  -3   9 18628.4 192.081   1
 -11  -3   8 15449.7 147.818   1
  -7  -3  11 5536.35 140.875  -2
  11   3  -7 5536.35 140.875   1
  11   3  -6 10547.9 130.789   1
  11   3  -5 5759.13 132.918   1
   5  -3 -11 10042.9 278.609  -2
 -11   3   5 10042.9 278.609   1
 -11   3   4 18538.5 194.231   1
  -3   3  10 23072.3 191.640  -2
  11  -3  -4 23072.3 191.640   1
 -11  -3   3 2765.01 72.7394   1
  -1  -3  10 11994.7 102.166  -2
  11   3  -2 11994.7 102.166   1
 -11  -3   1 11335.1 83.8856   1
   1  -3  10 20151.1 154.889  -2
  11   3   0 20151.1 154.889   1
  11   3   1 2897.93 72.4750   1
   3  -3  10 44464.8 146.624  -2
  11   3   2 44464.8 146.624   1
 -11  -3  -3 9072.31 136.254   1
  -5   3 -10 41687.4 290.579  -2
 -11  -3  -4 41687.4 290.579   1
  11   3   5 1624.77 106.986   1
   7  -3  10 29252.4 234.116  -2
  11   3   6 29252.4 234.116   1
 -11  -3  -7 25471.5 195.078   1
  11   3   8 5571.79 210.030   1
  -9   3 -10 6376.35 144.634  -2
 -11  -3  -8 6376.35 144.634   1
  11  -3   9 1325.51 100.078  -2
  11   3   9 1325.51 100.078   1
 -11  -3 -10 793.652 94.0737   1
  13  -3   9 10314.7 176.904  -2
  11   3  11 10314.7 176.904   1
  11   3  12 2504.92 89.8809   1
  15  -3   9 319.264 126.931  -2
  11   3  13 319.264 126.931   1
 -11   3 -14 924.939 89.4385   1
  17   3   9 3907.19 112.862  -2
  11  -3  15 3907.19 112.862   1
  11   3  16 13011.0 116.808   1
  19   3   9 15561.1 165.996  -2
  11  -3  17 15561.1 165.996   1
  11   3  18 9561.09 113.859   1
  21  -3   9 14217.9 162.104  -2
  11   3  19 14217.9 162.104   1
 -11  -3 -20 1583.38 128.810   1
  23  -3   8 3265.97 215.620  -2
  11   3  20 3265.97 215.620   1
  11   3  21 6155.91 156.647   1
  23   3   9 9763.91 239.363  -2
  11  -3  21 9763.91 239.363   1
  11  -3  22 10537.4 287.455   1
  25  -3   8 12139.6 198.843  -2
  11   3  22 12139.6 198.843   1
  11   3  23 179.014 112.267   1
  27  -3   8 986.314 174.164  -2
  11   3  24 986.314 174.164   1
  11   3  25 96.2666 129.624   1
  29  -3   8 514.255 168.604  -2
  11   3  26 514.255 168.604   1
  11   3  27 305.299 125.713   1
  31   3   8 995.336 163.634  -2
  11  -3  28 995.336 163.634   1
 -11  -3 -29 45.5573 100.671   1
 -33   3  -8 55.7802 127.937  -2
 -11  -3 -30 55.7802 127.937   1
  11  -3  31 64.5429 130.987   1
  35  -3   8 506.929 228.705  -2
  11   3  32 506.929 228.705   1
  11   3  33 29.2331 153.110   1
 -37  -5  13 252.977 225.601  -2
  11   5 -35 252.977 225.601   1
  11   5 -34 60.2572 197.193   1
  11  -5 -33 325.917 197.686   1
 -35  -5  13 836.408 292.143  -2
  11   5 -33 836.408 292.143   1
  11   5 -32 7.83709 154.846   1
  11  -5 -31 30.2807 171.398   1
  11  -5 -30 131.566 174.429   1
  11   5 -29 18.3994 102.541   1
 -11   5  28 346.598 138.622   1
 -29  -5  12 69.3736 246.670  -2
  11   5 -28 69.3736 246.670   1
 -11   5  27 29.1821 117.805   1
 -27  -5  12 133.588 147.275  -2
  11   5 -26 133.588 147.275   1
 -11   5  25 57.5010 113.117   1
 -25  -5  12 1940.56 203.197  -2
  11   5 -24 1940.56 203.197   1
  11  -5 -23 3937.14 172.258   1
 -23  -5  12 585.884 191.677  -2
  11   5 -22 585.884 191.677   1
  11   5 -21 271.748 177.186   1
 -21   5  12 1932.71 240.139  -2
  11  -5 -20 1932.71 240.139   1
  11   5 -19 77.5056 140.958   1
  11  -5 -18 414.782 271.259   1
  19  -5 -12 976.208 222.469  -2
 -11   5  18 976.208 222.469   1
  11   5 -17 28364.4 380.848   1
  17  -5 -11 47248.0 325.201  -2
 -11   5  17 47248.0 325.201   1
  11  -5 -16 678.156 105.954   1
 -15  -5  11 2567.40 172.397  -2
  11   5 -15 2567.40 172.397   1
  11   5 -14 968.768 126.924   1
 -13  -5  11 2558.82 182.560  -2
  11   5 -13 2558.82 182.560   1
  11  -5 -12 5305.91 161.760   1
 -11   5  11 11063.3 87.2117  -2
  11  -5 -11 11063.3 87.2117   1
  11   5 -10 25312.1 240.265   1
  -9   5  11 4375.23 236.381  -2
  11  -5  -9 4375.23 236.381   1
  11  -5  -8 2835.36 162.922   1
  -7   5  11 37211.1 328.642  -2
  11  -5  -7 37211.1 328.642   1
  11  -5  -6 982.907 134.056   1
  11   5  -5 4349.52 213.974   1
  -5   5  11 8974.94 295.800  -2
  11  -5  -5 8974.94 295.800   1
  11   5  -4 1928.82 198.194   1
  -3   5  10 4915.46 256.329  -2
  11  -5  -4 4915.46 256.329   1
  11  -5  -3 2834.77 119.000   1
  -1   5  10 5053.18 156.889  -2
  11  -5  -2 5053.18 156.889   1
  11  -5  -1 35897.2 238.774   1
   1  -5  10 34980.3 296.931  -2
  11   5   0 34980.3 296.931   1
 -11  -5  -1 250.335 142.778   1
   3  -5  10 36044.3 435.631  -2
  11   5   2 36044.3 435.631   1
  11   5   3 19961.1 344.627   1
   5  -5  10 25153.5 319.500  -2
  11   5   4 25153.5 319.500   1
  11   5   5 21577.0 246.247   1
  -7  -5 -10 5121.88 198.411  -2
 -11   5  -6 5121.88 198.411   1
  11   5   7 10216.6 133.209   1
  11   5   8 2842.25 204.536   1
   9  -5  10 3689.09 141.289  -2
  11   5   8 3689.09 141.289   1
  11  -5   9 206.930 106.489  -2
  11   5   9 206.930 106.489   1
 -11   5 -10 930.109 107.962   1
  13  -5   9 2086.45 150.052  -2
  11   5  11 2086.45 150.052   1
  11  -5  12 8591.62 118.918   1
  15   5   9 3313.68 98.6970  -2
  11  -5  13 3313.68 98.6970   1
 -11   5 -14 9525.05 96.7076   1
  17   5   9 11053.5 85.8000  -2
  11  -5  15 11053.5 85.8000   1
  11   5  16 4666.60 100.102   1
  19  -5   9 11484.5 169.909  -2
  11   5  17 11484.5 169.909   1
  11  -5  18 46.0342 98.8806   1
  21  -5   9 22520.1 197.231  -2
  11   5  19 22520.1 197.231   1
  11   5  20 112.823 116.940   1
  11   5  21 5953.83 172.010   1
  23   5   9 9200.52 405.546  -2
  11  -5  21 9200.52 405.546   1
  25  -5   8 2022.06 172.745  -2
  11   5  22 2022.06 172.745   1
  11  -5  23 219.374 128.969   1
  27  -5   8 2681.85 177.579  -2
  11   5  24 2681.85 177.579   1
  11   5  25 904.963 134.619   1
  29  -5   8 1703.42 173.593  -2
  11   5  26 1703.42 173.593   1
  11   5  27 1063.34 128.754   1
  31  -5   8 622.711 182.838  -2
  11   5  28 622.711 182.838   1
  11   5  29 217.479 114.585   1
  33  -5   8 8.21547 79.8735  -2
  11   5  30 8.21547 79.8735   1
  11   5  31 18.6420 173.115   1
  35  -5   8 896.246 201.646  -2
  11   5  32 896.246 201.646   1
  11   7 -32 1268.05 202.870   1
 -11   7  31 257.502 103.489   1
 -11   7  30 299.828 112.802   1
 -11   7  29 91.1779 116.684   1
  29  -7 -12 121.018 169.555  -2
 -11   7  28 121.018 169.555   1
 -11   7  27 269.740 137.809   1
  27  -7 -12 423.451 180.486  -2
 -11   7  26 423.451 180.486   1
  11   7 -25 601.154 287.146   1
 -25  -7  12 791.620 364.843  -2
  11   7 -24 791.620 364.843   1
  11   7 -23 331.532 281.457   1
 -23  -7  12 198.100 356.826  -2
  11   7 -22 198.100 356.826   1
  11  -7 -21 2523.33 206.593   1
 -21  -7  12 3980.81 278.067  -2
  11   7 -20 3980.81 278.067   1
  11  -7 -19 17038.7 296.772   1
 -19  -7  12 5429.18 279.999  -2
  11   7 -18 5429.18 279.999   1
 -17   7  11-59.7710 239.227  -2
  11  -7 -17-59.7710 239.227   1
  11  -7 -16 1755.92 143.909   1
 -15  -7  11 6125.12 211.022  -2
  11   7 -15 6125.12 211.022   1
  11  -7 -14 22800.5 234.451   1
 -13  -7  11 9316.79 300.283  -2
  11   7 -13 9316.79 300.283   1
  11  -7 -12 488.957 267.861   1
 -11   7  11 1198.69 340.811  -2
  11  -7 -11 1198.69 340.811   1
  11  -7 -10 4833.66 303.543   1
  -9   7  11 7466.60 402.562  -2
  11  -7  -9 7466.60 402.562   1
  11  -7  -8 7753.24 307.168   1
  -7   7  11 3974.90 208.594  -2
  11  -7  -7 3974.90 208.594   1
  11   7  -6 2132.98 152.869   1
  11   7  -5 459.326 180.661   1
  -5   7  11 6513.25 321.659  -2
  11  -7  -5 6513.25 321.659   1
  -3  -7  10 47163.1 379.329  -2
  11   7  -4 47163.1 379.329   1
  11   7  -3 1161.24 141.375   1
  -1  -7  10 29197.8 482.865  -2
  11   7  -2 29197.8 482.865   1
  11   7  -1 810.837 201.605   1
   1  -7  10 11158.2 384.067  -2
  11   7   0 11158.2 384.067   1
  11   7   1 1416.00 200.385   1
   3  -7  10 20519.6 164.677  -2
  11   7   2 20519.6 164.677   1
  11   7   3 6033.12 261.590   1
   5  -7  10 7751.17 380.325  -2
  11   7   4 7751.17 380.325   1
  11   7   5 5064.28 265.579   1
   7  -7  10 35805.1 574.076  -2
  11   7   6 35805.1 574.076   1
  11   7   7 4784.08 186.257   1
   9   7  10 6122.96 222.254  -2
  11  -7   8 6122.96 222.254   1
  11  -7   9 7155.29 198.212  -2
  11   7   9 7155.29 198.212   1
  11   7  10 1382.32 97.8858   1
  13  -7   9 169.020 102.266  -2
  11   7  11 169.020 102.266   1
  11   7  12 852.177 84.5350   1
  15  -7   9 6429.88 141.916  -2
  11   7  13 6429.88 141.916   1
  11   7  14 1355.66 96.2917   1
  17  -7   9 2812.21 135.905  -2
  11   7  15 2812.21 135.905   1
  11   7  16 7175.65 132.393   1
  19  -7   9 1844.38 103.332  -2
  11   7  17 1844.38 103.332   1
  11  -7  18 4902.55 147.258   1
  21  -7   9 844.098 179.511  -2
  11   7  19 844.098 179.511   1
  11   7  20 527.086 147.821   1
  11   7  21 72.9043 145.358   1
  25  -7   8 10699.3 234.797  -2
  11   7  22 10699.3 234.797   1
  11   7  23 7643.92 181.004   1
  27  -7   8 1117.03 190.778  -2
  11   7  24 1117.03 190.778   1
  11   7  25 1636.92 146.412   1
  29  -7   8 410.310 176.020  -2
  11   7  26 410.310 176.020   1
  11   7  27 124.040 129.744   1
  31  -7   8 372.852 149.689  -2
  11   7  28 372.852 149.689   1
 -11  -7 -29-51.1547 140.028   1
 -33   7  -8 133.654 157.786  -2
 -11  -7 -30 133.654 157.786   1
 -11   9  31 69.1048 106.098   1
 -11   9  30 919.272 118.020   1
 -11   9  29 71.7303 132.167   1
 -11   9  28 87.7017 143.605   1
 -11   9  27 181.097 150.309   1
  27  -9 -12 1280.02 217.571  -2
 -11   9  26 1280.02 217.571   1
 -11   9  25 21.1649 169.495   1
 -17   9  11 11050.7 543.497  -2
  11  -9 -17 11050.7 543.497   1
  11  -9 -16 3292.11 383.170   1
 -15  -9  11 1462.11 260.027  -2
  11   9 -15 1462.11 260.027   1
  11   9 -14 78.4347 185.150   1
 -13   9  11 447.133 392.016  -2
  11  -9 -13 447.133 392.016   1
  11  -9 -12 4882.90 364.621   1
 -11   9  11 3380.24 443.926  -2
  11  -9 -11 3380.24 443.926   1
  11  -9 -10 11189.7 410.256   1
  -9   9  11 7203.39 463.086  -2
  11  -9  -9 7203.39 463.086   1
  11  -9  -8 1122.40 185.530   1
  -7  -9  11 4545.36 233.061  -2
  11   9  -7 4545.36 233.061   1
  11   9  -6 428.093 137.747   1
  -5  -9  11 3089.26 204.628  -2
  11   9  -5 3089.26 204.628   1
  -3  -9  10 8654.07 349.409  -2
  11   9  -4 8654.07 349.409   1
  11   9  -3 1877.13 225.043   1
  -1  -9  10 1761.99 272.590  -2
  11   9  -2 1761.99 272.590   1
  11   9  -1 23938.7 450.395   1
   1  -9  10 1426.55 294.293  -2
  11   9   0 1426.55 294.293   1
  11   9   1 5118.89 275.632   1
   3  -9  10 13671.8 499.006  -2
  11   9   2 13671.8 499.006   1
  11   9   3 2132.68 251.508   1
   5  -9  10 2010.04 315.922  -2
  11   9   4 2010.04 315.922   1
  11   9   5 10559.6 362.204   1
   7  -9  10 13805.6 519.054  -2
  11   9   6 13805.6 519.054   1
  11   9   7 779.900 240.835   1
  11   9   8 54.2661 227.894   1
  11  -9   9 1453.44 317.653  -2
  11   9   9 1453.44 317.653   1
  11   9  10 97.7423 227.939   1
  13  -9   9 180.851 175.639  -2
  11   9  11 180.851 175.639   1
  11   9  12 9004.68 190.123   1
  15  -9   9 2152.26 211.346  -2
  11   9  13 2152.26 211.346   1
  11   9  14 4079.51 127.471   1
  17  -9   9 10533.2 221.261  -2
  11   9  15 10533.2 221.261   1
  11   9  16 224.922 125.456   1
  19  -9   9 2368.28 180.850  -2
  11   9  17 2368.28 180.850   1
  11   9  18 284.139 130.439   1
  21  -9   9 4886.73 196.284  -2
  11   9  19 4886.73 196.284   1
  11   9  20 734.280 137.798   1
  11   9  21 3848.95 150.195   1
  25  -9   8 326.080 168.919  -2
  11   9  22 326.080 168.919   1
  11   9  23 23.6680 126.393   1
  27  -9   8 2980.07 172.116  -2
  11   9  24 2980.07 172.116   1
  11   9  25 850.372 187.778   1
  29  -9   8 1382.28 226.250  -2
  11   9  26 1382.28 226.250   1
  11   9  27 534.745 129.590   1
 -31   9  -8 216.230 69.1008  -2
 -11  -9 -28 216.230 69.1008   1
 -11  11  28 9.48855 105.048   1
 -11  11  27-33.2225 121.897   1
  27 -11 -12 151.567 172.748  -2
 -11  11  26 151.567 172.748   1
 -11  11  25 21.9783 141.954   1
  25 -11 -12 452.431 201.168  -2
 -11  11  24 452.431 201.168   1
  11  11  -6 163.440 220.126   1
  -5 -11  11 1242.51 307.632  -2
  11  11  -5 1242.51 307.632   1
  -3 -11  10 7324.30 378.959  -2
  11  11  -4 7324.30 378.959   1
  11  11  -3 58.1519 234.487   1
  -1 -11  10 4636.89 357.470  -2
  11  11  -2 4636.89 357.470   1
  11  11  -1 727.468 227.214   1
   1 -11  10 6407.66 408.174  -2
  11  11   0 6407.66 408.174   1
  11  11   1 1717.63 249.330   1
   3 -11  10 11302.2 497.579  -2
  11  11   2 11302.2 497.579   1
  11  11   3 155.195 243.149   1
   5 -11  10 3681.94 396.576  -2
  11  11   4 3681.94 396.576   1
  11  11   5 3994.54 305.469   1
   7 -11  10 10468.3 487.179  -2
  11  11   6 10468.3 487.179   1
  11  11   7 5221.14 345.476   1
  11  11  14 257.051 162.735   1
  17 -11   9 3291.99 253.104  -2
  11  11  15 3291.99 253.104   1
  11  11  16 1614.44 172.287   1
  19 -11   9 4117.88 254.234  -2
  11  11  17 4117.88 254.234   1
  11  11  18 428.329 178.318   1
  21 -11   9 200.092 220.928  -2
  11  11  19 200.092 220.928   1
  11  11  20 377.517 171.068   1
  11  11  21 694.097 157.039   1
  25 -11   8 1520.26 213.835  -2
  11  11  22 1520.26 213.835   1
  11  11  23 191.283 152.423   1
 -27  11  -8 1291.62 153.383  -2
 -11 -11 -24 1291.62 153.383   1
 -11 -11 -25 36.3303 193.567   1
 -11  13  25 67.7877 101.796   1
  25 -13 -12 374.365 151.695  -2
 -11  13  24 374.365 151.695   1
 -11  13  23-16.5189 121.212   1
  23 -13 -12 1147.49 179.225  -2
 -11  13  22 1147.49 179.225   1
 -11  15  19 1405.43 106.460   1
 -38   0  14 746.194 270.794  -2
  12   0 -36 746.194 270.794   1
 -36   0  14 700.553 315.858  -2
  12   0 -34 700.553 315.858   1
  12   0 -32 115.666 278.893   1
  12   0 -30 553.206 274.138   1
  12   0 -28 4859.90 314.759   1
 -12   0  26 4289.97 223.855   1
  12   0 -24 3664.56 210.841   1
 -12   0  22 564.082 172.505   1
 -12   0  20 1921.00 167.541   1
 -12   0  18 6478.25 311.105   1
  16   0 -12 11964.4 233.322  -2
 -12   0  16 11964.4 233.322   1
 -14   0  12 25522.2 416.000  -2
  12   0 -14 25522.2 416.000   1
 -12   0  12 98968.1 784.418  -2
  12   0 -12 98968.1 784.418   1
 -10   0  12 127423. 779.623  -2
  12   0 -10 127423. 779.623   1
  -8   0  12 72858.2 531.406  -2
  12   0  -8 72858.2 531.406   1
  12   0  -6 13775.4 270.602   1
  12   0  -4 7591.12 232.054   1
  12   0  -2 305.310 163.881   1
  12   0   0 11975.1 254.059   1
  12   0   2 62066.5 461.639   1
  12   0   4 10318.6 220.614   1
  12   0   6 1305.03 153.485   1
  12   0   8 16192.5 189.065   1
 -12   0 -10 51020.4 585.263  -2
 -12   0 -10 51020.4 585.263   1
 -14   0 -10 43098.2 664.490  -2
 -12   0 -12 43098.2 664.490   1
 -16   0 -10 28733.9 598.041  -2
 -12   0 -14 28733.9 598.041   1
  18   0  10 55124.3 262.072  -2
  12   0  16 55124.3 262.072   1
  20   0  10 32727.9 217.228  -2
  12   0  18 32727.9 217.228   1
  12   0  20 3338.52 115.036   1
  12   0  22 3528.78 122.573   1
 -24   0 -10 4446.79 514.003  -2
 -12   0 -22 4446.79 514.003   1
  12   0  24 2479.59 122.069   1
  12   0  26 2895.96 162.122   1
  12   0  28 1754.11 148.811   1
  12   0  30 549.748 225.091   1
  12   0  32 694.514 189.028   1
  12   2 -37 198.272 160.151   1
 -38   2  14 125.342 173.315  -2
  12  -2 -36 125.342 173.315   1
  12  -2 -35 42.1089 157.924   1
 -36  -2  14 390.912 215.046  -2
  12   2 -34 390.912 215.046   1
  12  -2 -33-127.728 178.361   1
  12  -2 -32 28.4160 189.226   1
  12  -2 -31 627.916 197.328   1
  12   2 -30 113.107 200.800   1
 -30   2  13 1237.55 272.100  -2
  12  -2 -29 1237.55 272.100   1
  12   2 -28 205.093 204.727   1
 -28  -2  13 1170.54 266.180  -2
  12   2 -27 1170.54 266.180   1
  12  -2 -26 34.9388 199.282   1
  26   2 -13 2704.19 194.337  -2
 -12  -2  25 2704.19 194.337   1
 -12   2  24 406.691 131.781   1
  24   2 -13 951.659 169.329  -2
 -12  -2  23 951.659 169.329   1
  12  -2 -22 1392.74 127.634   1
  22  -2 -13 8969.03 185.872  -2
 -12   2  21 8969.03 185.872   1
 -12  -2  20 1399.84 116.877   1
 -12   2  19 1658.10 172.562   1
 -20   2  13 3390.56 263.073  -2
  12  -2 -19 3390.56 263.073   1
  12   2 -18 919.247 212.505   1
  18  -2 -12 868.187 322.010  -2
 -12   2  18 868.187 322.010   1
 -12   2  17 1690.15 135.687   1
 -16  -2  12 2882.88 181.500  -2
  12   2 -16 2882.88 181.500   1
 -12   2  15 360.628 99.0963   1
  14  -2 -12 7378.38 184.121  -2
 -12   2  14 7378.38 184.121   1
 -12   2  13 1776.03 117.957   1
 -12   2  12 17840.1 247.692  -2
  12  -2 -12 17840.1 247.692   1
  12   2 -11 464.502 112.034   1
 -10  -2  12 9477.26 205.558  -2
  12   2 -10 9477.26 205.558   1
  12  -2  -9 97823.2 376.928   1
  -8   2  12 2250.71 165.377  -2
  12  -2  -8 2250.71 165.377   1
  12  -2  -7 31285.6 226.470   1
  12   2  -6 614.774 137.110   1
  12   2  -5 683.646 190.657   1
  -4   2  11 13901.7 357.218  -2
  12  -2  -5 13901.7 357.218   1
  12   2  -4 1720.01 147.043   1
  -2  -2  11 68349.8 409.352  -2
  12   2  -3 68349.8 409.352   1
  12   2  -2 359.066 132.268   1
   0   2  11 8641.78 150.550  -2
  12  -2  -1 8641.78 150.550   1
  12   2   0 2274.76 72.3200   1
  -2   2 -11 7746.96 85.7603  -2
 -12  -2  -1 7746.96 85.7603   1
 -12  -2  -2 30822.2 125.615   1
   4   2  11 28027.0 215.207  -2
  12  -2   3 28027.0 215.207   1
  12   2   4 15635.5 136.346   1
  -6   2 -11 5781.39 124.552  -2
 -12  -2  -5 5781.39 124.552   1
 -12  -2  -6 4888.01 117.675   1
   8  -2  11 62352.9 272.048  -2
  12   2   7 62352.9 272.048   1
  12   2   8 3087.18 160.687   1
 -10   2 -10 8286.94 176.310  -2
 -12  -2  -8 8286.94 176.310   1
 -12  -2  -9 18786.8 157.925   1
 -12   2 -10 6444.34 174.453  -2
 -12  -2 -10 6444.34 174.453   1
 -12  -2 -11 370.533 138.260   1
 -14   2 -10 9057.88 269.036  -2
 -12  -2 -12 9057.88 269.036   1
 -12  -2 -13 23491.3 253.224   1
 -16  -2 -10 3446.62 111.645  -2
 -12   2 -14 3446.62 111.645   1
  12   2  15 46263.6 169.387   1
  18   2  10 1455.29 83.9410  -2
  12  -2  16 1455.29 83.9410   1
  12  -2  17 5205.62 76.5034   1
  20  -2  10 3780.38 96.5922  -2
  12   2  18 3780.38 96.5922   1
  12  -2  19 146.481 75.8666   1
  22   2   9 268.348 193.475  -2
  12  -2  19 268.348 193.475   1
  12   2  20 420.986 96.9531   1
  22   2  10 625.750 136.522  -2
  12  -2  20 625.750 136.522   1
 -24  -2  -9 5683.77 123.280  -2
 -12   2 -21 5683.77 123.280   1
  12  -2  22 3283.19 99.9681   1
  26  -2   9 6949.86 141.308  -2
  12   2  23 6949.86 141.308   1
  12  -2  24 310.433 93.9895   1
  28  -2   9 2992.06 146.109  -2
  12   2  25 2992.06 146.109   1
  12  -2  26 73.4592 102.498   1
  30   2   9 7996.31 89.5538  -2
  12  -2  27 7996.31 89.5538   1
  12  -2  28 727.794 126.025   1
  32  -2   9 764.200 133.242  -2
  12   2  29 764.200 133.242   1
  12   2  30 210.316 107.699   1
  34   2   9 1801.31 185.118  -2
  12  -2  31 1801.31 185.118   1
  12   2  32 173.347 124.047   1
  12   2  33 65.6669 146.117   1
  12  -4 -35-16.3545 129.641   1
  12  -4 -34-110.268 193.732   1
 -36  -4  14 418.769 281.947  -2
  12   4 -34 418.769 281.947   1
  12  -4 -33 102.239 157.963   1
  12  -4 -32 77.9502 171.677   1
  12  -4 -31 8.86297 178.720   1
  12   4 -30-13.2209 184.253   1
 -30   4  13 851.496 253.896  -2
  12  -4 -29 851.496 253.896   1
  12   4 -28 440.490 201.790   1
 -28  -4  13 813.317 258.507  -2
  12   4 -27 813.317 258.507   1
  12  -4 -26 950.418 198.077   1
 -26  -4  13 288.842 247.164  -2
  12   4 -25 288.842 247.164   1
  12  -4 -24 5903.60 109.732   1
  24  -4 -13 173.910 101.777  -2
 -12   4  23 173.910 101.777   1
 -12  -4  22 62.9035 102.933   1
 -22   4  13 1543.16 161.032  -2
  12  -4 -21 1543.16 161.032   1
 -12   4  20 684.574 115.039   1
 -12   4  19 2023.54 284.087   1
 -20  -4  13 4482.54 299.471  -2
  12   4 -19 4482.54 299.471   1
  18  -4 -12 13712.5 271.663  -2
 -12   4  18 13712.5 271.663   1
  12   4 -17 139.812 105.214   1
  16  -4 -12 8264.72 220.705  -2
 -12   4  16 8264.72 220.705   1
  12   4 -15 292.275 139.086   1
  14  -4 -12 6664.23 239.729  -2
 -12   4  14 6664.23 239.729   1
  12   4 -13 2572.71 171.907   1
 -12  -4  12 93219.6 181.798  -2
  12   4 -12 93219.6 181.798   1
  12   4 -11 17302.7 259.091   1
  10  -4 -12 7750.35 261.695  -2
 -12   4  10 7750.35 261.695   1
  12   4  -9 14610.1 156.029   1
  -8  -4  12 36340.7 230.285  -2
  12   4  -8 36340.7 230.285   1
 -12   4   7 680.115 102.690   1
 -12  -4   6 83026.5 417.403   1
   6  -4 -12 95435.8 424.450  -2
 -12   4   6 95435.8 424.450   1
 -12   4   5 1323.11 130.353   1
  -4   4  11 4649.15 189.957  -2
  12  -4  -5 4649.15 189.957   1
  12   4  -4 26340.2 152.234   1
   2   4 -11 4827.04 150.827  -2
 -12  -4   3 4827.04 150.827   1
 -12  -4   2 30937.0 217.010   1
   0   4 -11 29087.4 259.673  -2
 -12  -4   1 29087.4 259.673   1
 -12  -4   0 468.504 82.0009   1
   2  -4  11 24390.5 209.663  -2
  12   4   1 24390.5 209.663   1
 -12  -4  -2 832.410 104.109   1
   4  -4  11 26499.5 270.931  -2
  12   4   3 26499.5 270.931   1
 -12  -4  -4 6339.09 139.884   1
   6  -4  11 3586.45 155.132  -2
  12   4   5 3586.45 155.132   1
 -12  -4  -6 9653.31 153.023   1
   8  -4  11 18129.1 202.753  -2
  12   4   7 18129.1 202.753   1
  10  -4  10 88044.3 318.898  -2
  12   4   8 88044.3 318.898   1
 -12   4  -9 16765.2 176.289   1
  12  -4  10 8443.19 182.626  -2
  12   4  10 8443.19 182.626   1
  12   4  11 16161.7 188.495   1
  14  -4  10 8907.97 198.913  -2
  12   4  12 8907.97 198.913   1
  12   4  13 765.816 68.3294   1
 -16  -4 -10 2167.78 99.1189  -2
 -12   4 -14 2167.78 99.1189   1
 -12   4 -15 685.279 84.0381   1
  18   4  10 7324.40 144.332  -2
  12  -4  16 7324.40 144.332   1
  12   4  17 595.485 95.7371   1
  20  -4  10 2385.94 132.234  -2
  12   4  18 2385.94 132.234   1
 -12   4 -19 4350.83 146.341   1
  22  -4   9 7332.54 236.451  -2
  12   4  19 7332.54 236.451   1
  12   4  20 319.828 126.116   1
 -22  -4 -10 275.935 153.876  -2
 -12   4 -20 275.935 153.876   1
  24   4   9 3070.13 156.194  -2
  12  -4  21 3070.13 156.194   1
  12   4  22 1881.39 140.223   1
  26  -4   9 670.422 169.108  -2
  12   4  23 670.422 169.108   1
  12   4  24 6753.72 160.799   1
  28   4   9 130.736 169.989  -2
  12  -4  25 130.736 169.989   1
  12   4  26 3159.50 141.295   1
  30  -4   9 2915.37 179.357  -2
  12   4  27 2915.37 179.357   1
  12   4  28 325.099 121.293   1
 -32   4  -9 677.242 136.498  -2
 -12  -4 -29 677.242 136.498   1
  12   4  30 1493.81 112.598   1
  34  -4   9 139.124 236.080  -2
  12   4  31 139.124 236.080   1
  12   4  32 1090.31 166.907   1
  12   6 -34 142.596 178.891   1
  12   6 -33 6.26979 198.670   1
  12   6 -32 124.963 209.045   1
  12   6 -31 114.912 234.671   1
  12   6 -30 33.0001 111.018   1
 -12   6  29 166.503 132.816   1
 -30   6  13 435.862 226.011  -2
  12  -6 -29 435.862 226.011   1
 -12   6  28 114.545 105.208   1
  28  -6 -13 2335.50 157.927  -2
 -12   6  27 2335.50 157.927   1
 -12   6  26 6.61560 115.203   1
  26  -6 -13 338.428 177.357  -2
 -12   6  25 338.428 177.357   1
  12   6 -24-90.5170 267.122   1
 -24  -6  13 633.377 363.071  -2
  12   6 -23 633.377 363.071   1
  12  -6 -22 549.292 189.765   1
 -22   6  13 375.587 244.080  -2
  12  -6 -21 375.587 244.080   1
  12  -6 -20 330.753 185.380   1
  12  -6 -19 223.950 267.438   1
 -20  -6  13 589.686 321.738  -2
  12   6 -19 589.686 321.738   1
 -18  -6  12 5133.93 252.140  -2
  12   6 -18 5133.93 252.140   1
  12   6 -17 254.460 121.515   1
 -16  -6  12 1628.60 170.224  -2
  12   6 -16 1628.60 170.224   1
  12   6 -15 295.269 125.496   1
 -14  -6  12 1991.12 219.025  -2
  12   6 -14 1991.12 219.025   1
  12   6 -13 608.895 156.372   1
 -12  -6  12 31514.3 449.512  -2
  12   6 -12 31514.3 449.512   1
  12   6 -11 1324.60 165.555   1
 -10   6  12 6440.96 259.304  -2
  12  -6 -10 6440.96 259.304   1
  12  -6  -9 37207.4 518.834   1
  -8   6  12 30084.0 506.530  -2
  12  -6  -8 30084.0 506.530   1
  12  -6  -7 2594.01 229.809   1
  12   6  -6 48838.2 541.009   1
  -6   6  12 64401.8 598.257  -2
  12  -6  -6 64401.8 598.257   1
  12   6  -5 22299.4 384.836   1
  -4   6  11 34860.0 479.787  -2
  12  -6  -5 34860.0 479.787   1
  12  -6  -4 12292.3 219.822   1
  -2  -6  11 5184.49 208.535  -2
  12   6  -3 5184.49 208.535   1
  12   6  -2 1245.32 127.331   1
   0  -6  11 5759.60 311.943  -2
  12   6  -1 5759.60 311.943   1
  12   6   0 22347.9 375.597   1
   2  -6  11 2351.68 277.539  -2
  12   6   1 2351.68 277.539   1
  12   6   2 23687.4 399.095   1
   4  -6  11 23619.6 509.942  -2
  12   6   3 23619.6 509.942   1
  12   6   4 533.587 197.950   1
   6  -6  11 21090.3 468.937  -2
  12   6   5 21090.3 468.937   1
  12   6   6 251.533 197.506   1
  12   6   7 43917.6 340.636   1
  10  -6  10 11232.7 220.847  -2
  12   6   8 11232.7 220.847   1
  12  -6   9 7218.19 126.737   1
  12  -6  10 366.589 100.354  -2
  12   6  10 366.589 100.354   1
  12   6  11 40.1208 68.8317   1
  14  -6  10 5140.58 116.069  -2
  12   6  12 5140.58 116.069   1
  12   6  13 15063.5 119.251   1
  16  -6  10 1909.79 114.597  -2
  12   6  14 1909.79 114.597   1
  12  -6  15 7973.08 117.771   1
  18  -6  10 2829.84 147.506  -2
  12   6  16 2829.84 147.506   1
  12   6  17 1869.21 112.766   1
  20  -6  10 5237.58 172.108  -2
  12   6  18 5237.58 172.108   1
  12   6  19 212.231 152.769   1
  22  -6   9 1647.14 279.084  -2
  12   6  19 1647.14 279.084   1
  12   6  20 1263.12 149.161   1
  22   6  10 1926.35 388.798  -2
  12  -6  20 1926.35 388.798   1
  24  -6   9 1011.50 169.862  -2
  12   6  21 1011.50 169.862   1
  12   6  22 799.348 135.754   1
  26  -6   9 4028.30 186.567  -2
  12   6  23 4028.30 186.567   1
  12  -6  24 1736.78 137.141   1
  28  -6   9 421.817 191.256  -2
  12   6  25 421.817 191.256   1
  12   6  26 94.6314 142.095   1
  30  -6   9 3360.00 194.425  -2
  12   6  27 3360.00 194.425   1
  12   6  28 236.140 126.216   1
  32  -6   9 3184.51 209.212  -2
  12   6  29 3184.51 209.212   1
  12   6  30 500.198 135.605   1
  34  -6   9 2230.97 203.631  -2
  12   6  31 2230.97 203.631   1
 -12   8  31 137.796 117.073   1
 -12   8  30 37.7682 119.649   1
 -12   8  29 7.99681 131.701   1
 -30  -8  13 844.457 276.304  -2
  12   8 -29 844.457 276.304   1
 -12   8  28 282.187 121.379   1
 -28  -8  13 137.678 166.692  -2
  12   8 -27 137.678 166.692   1
 -12   8  26 770.152 140.988   1
 -26  -8  13 569.145 354.082  -2
  12   8 -25 569.145 354.082   1
  12   8 -24 1726.55 285.703   1
 -24  -8  13 200.421 124.276  -2
  12   8 -23 200.421 124.276   1
  12   8 -22 56.4697 251.666   1
 -22  -8  13 334.507 345.470  -2
  12   8 -21 334.507 345.470   1
  12   8 -20 1842.60 265.987   1
 -20  -8  13 2870.82 345.820  -2
  12   8 -19 2870.82 345.820   1
 -18   8  12 3354.91 279.106  -2
  12  -8 -18 3354.91 279.106   1
  12  -8 -17 2222.83 217.336   1
 -16   8  12 2907.21 205.804  -2
  12  -8 -16 2907.21 205.804   1
  12   8 -15 307.041 148.912   1
 -14  -8  12 189.119 180.126  -2
  12   8 -14 189.119 180.126   1
  12   8 -13 3436.02 157.582   1
 -12   8  12 127.187 54.6260  -2
  12  -8 -12 127.187 54.6260   1
  12  -8 -11 11255.8 238.545   1
 -10   8  12 2291.94 242.910  -2
  12  -8 -10 2291.94 242.910   1
  12  -8  -9 8960.83 340.646   1
  -8   8  12 20563.5 513.266  -2
  12  -8  -8 20563.5 513.266   1
  12  -8  -7 331.069 236.290   1
  12   8  -6 193.742 190.243   1
  -6   8  12 1024.04 302.527  -2
  12  -8  -6 1024.04 302.527   1
  12   8  -5 5368.96 260.553   1
  12   8  -4 69.6132 200.164   1
  -2  -8  11 15638.4 402.772  -2
  12   8  -3 15638.4 402.772   1
  12   8  -2 7503.81 297.777   1
   0  -8  11 1562.20 288.665  -2
  12   8  -1 1562.20 288.665   1
  12   8   0 18622.6 397.032   1
   2  -8  11 17694.8 516.528  -2
  12   8   1 17694.8 516.528   1
  12   8   2 7331.26 301.175   1
   4  -8  11 18926.1 531.002  -2
  12   8   3 18926.1 531.002   1
  12   8   4 8217.96 320.870   1
   6  -8  11 20024.0 266.601  -2
  12   8   5 20024.0 266.601   1
  12   8   6 450.083 141.705   1
  12   8   7 458.203 205.969   1
  10  -8  10 13694.7 426.007  -2
  12   8   8 13694.7 426.007   1
  12   8   9 126.508 222.392   1
  12  -8  10 20015.4 267.500  -2
  12   8  10 20015.4 267.500   1
  12   8  11 321.931 96.6341   1
  14  -8  10 7330.62 168.242  -2
  12   8  12 7330.62 168.242   1
  12   8  13 4806.02 125.006   1
  16  -8  10 6177.35 179.377  -2
  12   8  14 6177.35 179.377   1
  12   8  15 2721.26 139.365   1
  18  -8  10 4344.46 192.547  -2
  12   8  16 4344.46 192.547   1
  12   8  17 1582.57 141.844   1
  20  -8  10 8337.99 216.690  -2
  12   8  18 8337.99 216.690   1
  12   8  19 8630.61 182.866   1
  12   8  20 4662.48 161.113   1
  24  -8   9 614.982 186.824  -2
  12   8  21 614.982 186.824   1
  12   8  22 1296.94 148.967   1
  26  -8   9 501.394 175.551  -2
  12   8  23 501.394 175.551   1
  12   8  24 88.8951 130.027   1
  28  -8   9 1354.37 172.874  -2
  12   8  25 1354.37 172.874   1
  12   8  26 396.321 118.861   1
  30  -8   9 423.946 222.544  -2
  12   8  27 423.946 222.544   1
  12   8  28 595.424 131.865   1
 -32   8  -9 470.130 145.245  -2
 -12  -8 -29 470.130 145.245   1
 -12  10  29 25.0007 111.883   1
 -12  10  28 170.023 119.849   1
  28 -10 -13 2120.95 185.928  -2
 -12  10  27 2120.95 185.928   1
 -12  10  26 374.014 150.731   1
  26 -10 -13 916.940 207.948  -2
 -12  10  25 916.940 207.948   1
 -14 -10  12 5745.30 338.102  -2
  12  10 -14 5745.30 338.102   1
  12  10 -13 639.199 204.073   1
 -12 -10  12 1256.24 87.8283  -2
  12  10 -12 1256.24 87.8283   1
 -12  10  11 3536.66 410.481   1
  10 -10 -12 8322.38 568.639  -2
 -12  10  10 8322.38 568.639   1
 -12  10   9 223.215 302.637   1
  -4 -10  11 17041.9 457.155  -2
  12  10  -5 17041.9 457.155   1
  12  10  -4 785.882 239.319   1
  -2 -10  11 9639.59 432.427  -2
  12  10  -3 9639.59 432.427   1
  12  10  -2 136.798 216.626   1
   0 -10  11 4404.62 367.858  -2
  12  10  -1 4404.62 367.858   1
  12  10   0 3073.65 276.557   1
   2 -10  11 3154.30 350.029  -2
  12  10   1 3154.30 350.029   1
  12  10   2 531.976 230.076   1
   4 -10  11 4116.34 375.681  -2
  12  10   3 4116.34 375.681   1
  12  10   4-41.3028 236.472   1
   6 -10  11 1494.77 340.574  -2
  12  10   5 1494.77 340.574   1
  12  10   6 573.858 236.898   1
  12  10   7 966.788 294.025   1
  10 -10  10 22850.6 554.237  -2
  12  10   8 22850.6 554.237   1
  12  10   9 154.691 246.894   1
  12 -10  10 23257.9 629.072  -2
  12  10  10 23257.9 629.072   1
  12  10  13 51.1428 173.454   1
  16 -10  10 6643.40 277.071  -2
  12  10  14 6643.40 277.071   1
  12  10  15 1376.26 186.894   1
  18 -10  10 8705.03 297.625  -2
  12  10  16 8705.03 297.625   1
  12  10  17 3704.34 210.819   1
  20 -10  10 1916.57 163.362  -2
  12  10  18 1916.57 163.362   1
  12  10  19 2076.25 129.268   1
  12  10  20 994.787 120.725   1
  24 -10   9 410.060 147.094  -2
  12  10  21 410.060 147.094   1
  12  10  22 5874.67 133.239   1
  26 -10   9 625.531 224.530  -2
  12  10  23 625.531 224.530   1
  12  10  24 56.4651 162.771   1
  28 -10   9 463.523 193.643  -2
  12  10  25 463.523 193.643   1
 -12 -10 -26 260.067 206.399   1
  28 -12 -13 136.169 127.791  -2
 -12  12  27 136.169 127.791   1
 -12  12  26 41.3142 110.703   1
  26 -12 -13 1453.88 172.227  -2
 -12  12  25 1453.88 172.227   1
 -12  12  24 53.8514 132.895   1
 -24  12 -10 3429.51 261.256  -2
 -12 -12 -22 3429.51 261.256   1
 -12  14  22 453.141 107.615   1
  22 -14 -13 782.870 148.374  -2
 -12  14  21 782.870 148.374   1
  13  -1 -37 59.3241 166.298   1
 -39  -1  15 162.706 218.247  -2
  13   1 -37 162.706 218.247   1
  13   1 -36 26.0588 143.847   1
 -37   1  15 282.448 200.924  -2
  13  -1 -35 282.448 200.924   1
  13  -1 -34-17.2388 171.194   1
  13   1 -33-43.0047 185.822   1
  13  -1 -32 52.2560 192.031   1
  13   1 -31 308.677 201.366   1
 -31   1  14 55.6167 262.064  -2
  13  -1 -30 55.6167 262.064   1
  13  -1 -29-43.3385 205.851   1
 -29   1  14 40.1248 136.100  -2
  13  -1 -28 40.1248 136.100   1
  13  -1 -27 436.029 200.081   1
 -27   1  14 55.1306 108.907  -2
  13  -1 -26 55.1306 108.907   1
 -13   1  25 183.895 131.851   1
  25   1 -14 198.880 170.220  -2
 -13  -1  24 198.880 170.220   1
 -13  -1  23 3597.55 146.401   1
 -23  -1  14 4142.33 176.411  -2
  13   1 -22 4142.33 176.411   1
  13   1 -21 175.793 117.889   1
 -13   1  20 488.929 113.466   1
 -13  -1  19 4225.77 203.567   1
 -19  -1  13 10576.3 213.256  -2
  13   1 -19 10576.3 213.256   1
 -13  -1  18 2094.00 138.166   1
 -17   1  13 17179.4 205.254  -2
  13  -1 -17 17179.4 205.254   1
 -13   1  16 4553.65 131.035   1
 -15  -1  13 7817.77 194.479  -2
  13   1 -15 7817.77 194.479   1
 -13   1  14 1538.56 118.538   1
  13  -1 -13 31819.0 309.056  -2
 -13   1  13 31819.0 309.056   1
  13   1 -12 432.284 126.514   1
 -11   1  13 4979.83 209.204  -2
  13  -1 -11 4979.83 209.204   1
  13   1 -10 52393.8 343.593   1
  -9  -1  13 5799.70 203.832  -2
  13   1  -9 5799.70 203.832   1
  13   1  -8 1953.64 147.231   1
  13   1  -7 4058.32 156.336   1
  -5  -1  12 7254.08 203.504  -2
  13   1  -6 7254.08 203.504   1
  13  -1  -5 22700.2 238.172   1
  -3   1  12 13240.9 230.164  -2
  13  -1  -4 13240.9 230.164   1
  13   1  -3 1017.84 136.191   1
  -1  -1  12 1526.65 175.990  -2
  13   1  -2 1526.65 175.990   1
  13  -1  -1 4830.68 157.354   1
   1   1  12 813.312 169.848  -2
  13  -1   0 813.312 169.848   1
  13   1   1 16986.2 116.836   1
   3   1  12 20643.0 106.219  -2
  13  -1   2 20643.0 106.219   1
  13  -1   3 26255.3 236.446   1
   5   1  12 13748.7 217.062  -2
  13  -1   4 13748.7 217.062   1
 -13  -1  -5 2663.70 118.163   1
  13  -1   6 32929.8 340.726   1
  -7   1 -12 43222.7 319.295  -2
 -13  -1  -6 43222.7 319.295   1
  13   1   7 2142.65 110.858   1
  -9   1 -11 6422.99 342.735  -2
 -13  -1  -7 6422.99 342.735   1
  13   1   8 3931.63 106.958   1
  11  -1  11 8243.78 156.142  -2
  13   1   9 8243.78 156.142   1
 -13  -1 -10 1193.62 157.827   1
 -13   1 -11 434.092 187.108  -2
 -13  -1 -11 434.092 187.108   1
 -13  -1 -12 1310.53 148.844   1
 -15  -1 -11 937.166 190.835  -2
 -13   1 -13 937.166 190.835   1
  13   1  14 56.0409 66.8766   1
  17   1  11 4537.59 88.0582  -2
  13  -1  15 4537.59 88.0582   1
  13  -1  16 185.445 62.4572   1
  19  -1  11 8161.84 105.185  -2
  13   1  17 8161.84 105.185   1
  13  -1  18 5967.07 94.2136   1
  21  -1  10 7452.05 215.885  -2
  13   1  18 7452.05 215.885   1
  13  -1  19 5792.06 87.3235   1
  13   1  20 229.884 128.631   1
  23   1  10 5815.13 132.874  -2
  13  -1  20 5815.13 132.874   1
  13   1  21 4321.61 90.1084   1
 -23   1 -11 4893.23 361.318  -2
 -13  -1 -21 4893.23 361.318   1
  25   1  10 6461.52 120.497  -2
  13  -1  22 6461.52 120.497   1
  13   1  23 2971.17 87.7108   1
  27   1  10 1591.31 125.038  -2
  13  -1  24 1591.31 125.038   1
  13   1  25 2182.65 98.0670   1
  29   1  10 849.104 137.187  -2
  13  -1  26 849.104 137.187   1
  13  -1  27 83.6117 98.3806   1
  31  -1  10 524.148 124.428  -2
  13   1  28 524.148 124.428   1
  13   1  29 95.7543 112.489   1
  33   1  10 664.332 137.869  -2
  13  -1  30 664.332 137.869   1
  13   1  31 61.5052 137.285   1
  13   1  32 520.881 125.545   1
  13   3 -36 72.8850 182.631   1
  13   3 -35 254.723 142.290   1
  13   3 -34 11.2883 160.408   1
  13   3 -33 12.0710 170.074   1
  13  -3 -32 766.354 190.727   1
  13   3 -31-12.2481 192.207   1
 -31  -3  14 1224.00 261.706  -2
  13   3 -30 1224.00 261.706   1
  13  -3 -29 1108.49 204.585   1
 -29  -3  14 634.051 261.942  -2
  13   3 -28 634.051 261.942   1
  13   3 -27 290.852 190.426   1
 -27   3  14 1354.66 259.056  -2
  13  -3 -26 1354.66 259.056   1
 -13  -3  25-3.57913 148.167   1
  25   3 -14 1198.22 172.418  -2
 -13  -3  24 1198.22 172.418   1
  13   3 -23 155.758 127.105   1
  23  -3 -14 3953.17 174.769  -2
 -13   3  22 3953.17 174.769   1
 -13  -3  21 707.078 120.844   1
  13  -3 -20 1877.71 170.258   1
 -21  -3  14 9206.36 349.711  -2
  13   3 -20 9206.36 349.711   1
 -13   3  19 1107.36 248.468   1
 -19  -3  13 1467.85 193.213  -2
  13   3 -19 1467.85 193.213   1
  13   3 -18 44.3548 154.491   1
  17  -3 -13 1256.79 169.427  -2
 -13   3  17 1256.79 169.427   1
  13   3 -16 7411.80 186.569   1
 -15  -3  13 5100.49 220.618  -2
  13   3 -15 5100.49 220.618   1
 -13   3  14 2594.18 161.082   1
  13  -3 -13 27432.7 380.137  -2
 -13   3  13 27432.7 380.137   1
 -13   3  12 174.464 114.923   1
 -11  -3  13 4483.70 187.747  -2
  13   3 -11 4483.70 187.747   1
 -13  -3  10 16028.7 158.537   1
  -9  -3  13 38018.3 236.415  -2
  13   3  -9 38018.3 236.415   1
  13   3  -8 4169.00 123.212   1
  13   3  -7 326.177 120.856   1
   7  -3 -13 402.001 286.323  -2
 -13   3   7 402.001 286.323   1
  13   3  -6 6236.72 175.776   1
   5  -3 -12 7510.58 223.593  -2
 -13   3   6 7510.58 223.593   1
  13   3  -5 24.2335 99.7933   1
  -3  -3  12 11537.0 140.664  -2
  13   3  -4 11537.0 140.664   1
  13   3  -3 46.8556 76.8006   1
  -1   3  12 52734.9 230.716  -2
  13  -3  -2 52734.9 230.716   1
  13  -3  -1 26191.6 153.374   1
   1  -3  12 37069.6 222.316  -2
  13   3   0 37069.6 222.316   1
 -13  -3  -1 2258.44 76.7247   1
   3  -3  12 115048. 423.753  -2
  13   3   2 115048. 423.753   1
 -13  -3  -3 20193.7 192.316   1
  -5   3 -12 45224.4 291.642  -2
 -13  -3  -4 45224.4 291.642   1
 -13  -3  -5 20237.5 189.680   1
   7  -3  12 12424.1 178.174  -2
  13   3   6 12424.1 178.174   1
   9  -3  11 6637.25 148.526  -2
  13   3   7 6637.25 148.526   1
 -13  -3  -8 17667.5 173.484   1
  11  -3  11 10172.9 162.804  -2
  13   3   9 10172.9 162.804   1
 -13  -3 -10 690.017 110.877   1
 -13   3 -11 1281.70 340.423  -2
 -13  -3 -11 1281.70 340.423   1
 -13   3 -12 1245.17 151.971   1
  15  -3  11 1230.03 93.3116  -2
  13   3  13 1230.03 93.3116   1
  13   3  14 166.479 65.2567   1
  17  -3  11 4488.89 106.894  -2
  13   3  15 4488.89 106.894   1
  13   3  16 50.4872 70.5340   1
  19  -3  11 3608.98 112.894  -2
  13   3  17 3608.98 112.894   1
 -13  -3 -18 2962.49 101.664   1
  21   3  10 6463.53 220.972  -2
  13  -3  18 6463.53 220.972   1
  13   3  19 725.416 132.225   1
  21   3  11 4415.85 214.340  -2
  13  -3  19 4415.85 214.340   1
  13  -3  20 31416.0 391.821   1
  23  -3  10 33506.3 232.745  -2
  13   3  20 33506.3 232.745   1
  13  -3  21 1186.69 113.190   1
  25  -3  10 8980.47 177.091  -2
  13   3  22 8980.47 177.091   1
  13  -3  23 1014.07 118.539   1
  27  -3  10 644.406 174.633  -2
  13   3  24 644.406 174.633   1
  13   3  25 706.392 135.231   1
  29  -3  10 2449.63 179.196  -2
  13   3  26 2449.63 179.196   1
  13   3  27 154.604 125.886   1
  31  -3  10 164.499 155.020  -2
  13   3  28 164.499 155.020   1
  13   3  29 885.305 102.582   1
  33  -3  10 465.202 136.345  -2
  13   3  30 465.202 136.345   1
  13   3  31 301.996 186.400   1
  13   3  32 164.183 162.497   1
  13   5 -35 341.158 173.553   1
  13   5 -34 51.3966 189.594   1
  13   5 -33 63.6148 219.852   1
  13   5 -32 9.33373 148.918   1
  13   5 -31 83.3695 164.823   1
 -31  -5  14 304.905 232.150  -2
  13   5 -30 304.905 232.150   1
  13  -5 -29 861.778 185.162   1
 -29   5  14 258.881 237.449  -2
  13  -5 -28 258.881 237.449   1
  13   5 -27 43.1137 181.941   1
  27  -5 -14 489.850 147.968  -2
 -13   5  26 489.850 147.968   1
 -13   5  25 312.259 111.113   1
 -25  -5  14 777.764 223.097  -2
  13   5 -24 777.764 223.097   1
  13   5 -23 962.035 125.046   1
 -23   5  14 20.1203 176.045  -2
  13  -5 -22 20.1203 176.045   1
  13  -5 -21 104.419 181.492   1
  13  -5 -20 209.021 190.817   1
 -21  -5  14 386.775 328.128  -2
  13   5 -20 386.775 328.128   1
 -13   5  19 3935.83 329.267   1
 -19   5  13 4723.68 247.728  -2
  13  -5 -19 4723.68 247.728   1
  13  -5 -18 812.962 147.503   1
 -17  -5  13 578.022 138.186  -2
  13   5 -17 578.022 138.186   1
  13   5 -16-57.6164 104.763   1
 -15   5  13 1424.76 147.454  -2
  13  -5 -15 1424.76 147.454   1
 -13   5  14 33.8427 126.954   1
 -13   5  13 42941.4 112.865  -2
  13  -5 -13 42941.4 112.865   1
  13  -5 -12 1170.00 138.169   1
 -11  -5  13 2327.89 180.644  -2
  13   5 -11 2327.89 180.644   1
 -13   5  10 898.393 128.649   1
  -9   5  13 686.098 156.566  -2
  13  -5  -9 686.098 156.566   1
 -13   5   8 306.896 113.944   1
 -13  -5   7 5064.86 169.807   1
  -7   5  13 7508.09 208.042  -2
  13  -5  -7 7508.09 208.042   1
  13   5  -6 1691.28 209.398   1
   5   5 -12 3113.90 191.489  -2
 -13  -5   6 3113.90 191.489   1
 -13  -5   5 112.224 112.691   1
   3   5 -12 762.477 142.874  -2
 -13  -5   4 762.477 142.874   1
 -13  -5   3 2012.19 122.479   1
   1   5 -12 7635.88 193.066  -2
 -13  -5   2 7635.88 193.066   1
  13  -5  -1 11405.7 164.155   1
   1  -5  12 13016.8 106.029  -2
  13   5   0 13016.8 106.029   1
 -13  -5  -1 19368.6 269.159   1
   3  -5  12 1759.50 162.095  -2
  13   5   2 1759.50 162.095   1
  13   5   3 21727.0 217.838   1
   5  -5  12 22165.6 254.092  -2
  13   5   4 22165.6 254.092   1
 -13  -5  -5 182.149 107.725   1
  13   5   6 1208.13 120.415   1
   9  -5  11 7925.29 163.995  -2
  13   5   7 7925.29 163.995   1
  13   5   8 175.107 97.4321   1
  11  -5  11 1996.95 183.889  -2
  13   5   9 1996.95 183.889   1
  13  -5  10 2195.66 102.936   1
 -13  -5 -11 4385.26 120.486  -2
 -13   5 -11 4385.26 120.486   1
  13   5  12 1460.83 73.1847   1
  15  -5  11 193.701 65.4666  -2
  13   5  13 193.701 65.4666   1
  13   5  14 113.707 74.2774   1
  17  -5  11 5242.47 141.332  -2
  13   5  15 5242.47 141.332   1
  13   5  16 2174.78 102.624   1
  19  -5  11 18370.0 194.533  -2
  13   5  17 18370.0 194.533   1
  13  -5  18 2501.94 152.453   1
  21  -5  10 3827.20 222.827  -2
  13   5  18 3827.20 222.827   1
  13   5  19 2813.96 145.881   1
  21   5  11 5414.41 278.416  -2
  13  -5  19 5414.41 278.416   1
  23  -5  10 2878.02 177.682  -2
  13   5  20 2878.02 177.682   1
  13   5  21 907.175 130.672   1
  25  -5  10 2023.49 180.112  -2
  13   5  22 2023.49 180.112   1
  13   5  23 9383.85 171.450   1
  27  -5  10 5608.29 199.014  -2
  13   5  24 5608.29 199.014   1
  13  -5  25 133.553 126.380   1
  29  -5  10 302.755 161.918  -2
  13   5  26 302.755 161.918   1
  13  -5  27 525.271 118.083   1
  31  -5  10 1748.48 181.192  -2
  13   5  28 1748.48 181.192   1
  13   5  29 1191.59 111.063   1
 -33   5 -10 277.169 173.437  -2
 -13  -5 -30 277.169 173.437   1
  13   5  31 42.9139 149.989   1
  13   7 -32 424.964 195.410   1
  13   7 -31 124.994 208.176   1
 -13   7  30 11.1857 120.436   1
 -31  -7  14 38.6978 135.877  -2
  13   7 -30 38.6978 135.877   1
  13   7 -29-16.8212 112.922   1
  29  -7 -14 1173.26 163.348  -2
 -13   7  28 1173.26 163.348   1
 -13   7  27 622.969 127.731   1
  27  -7 -14 422.765 183.935  -2
 -13   7  26 422.765 183.935   1
  13   7 -25 2486.66 311.409   1
 -25  -7  14 881.521 377.738  -2
  13   7 -24 881.521 377.738   1
  13   7 -23 3218.35 313.621   1
 -23  -7  14 2015.34 371.212  -2
  13   7 -22 2015.34 371.212   1
  13   7 -21 9208.76 345.611   1
  13  -7 -20 3697.04 363.417   1
 -21  -7  14 9762.17 418.516  -2
  13   7 -20 9762.17 418.516   1
 -19   7  13 5615.97 287.884  -2
  13  -7 -19 5615.97 287.884   1
  13  -7 -18 3183.32 219.772   1
 -17   7  13 3973.67 205.274  -2
  13  -7 -17 3973.67 205.274   1
  13  -7 -16 21548.5 239.270   1
 -15   7  13 3920.84 204.141  -2
  13  -7 -15 3920.84 204.141   1
  13  -7 -14 1349.07 141.054   1
 -13  -7  13 3113.99 81.2430  -2
  13   7 -13 3113.99 81.2430   1
  13   7 -12 3873.56 152.420   1
 -11  -7  13 9672.66 225.587  -2
  13   7 -11 9672.66 225.587   1
  13   7 -10 6127.47 214.492   1
  -9   7  13 13899.7 449.033  -2
  13  -7  -9 13899.7 449.033   1
  13  -7  -8 211.537 232.155   1
  -7   7  13 8392.09 350.329  -2
  13  -7  -7 8392.09 350.329   1
  -5  -7  12 4914.83 218.723  -2
  13   7  -6 4914.83 218.723   1
  13  -7  -5 2280.66 159.936   1
  -3  -7  12 3572.26 211.334  -2
  13   7  -4 3572.26 211.334   1
  13  -7  -3 3474.09 167.068   1
  -1  -7  12 4043.52 318.587  -2
  13   7  -2 4043.52 318.587   1
  13   7  -1 475.719 195.846   1
   1  -7  12 30182.8 613.920  -2
  13   7   0 30182.8 613.920   1
  13   7   1 6756.79 286.463   1
   3  -7  12 18845.8 495.308  -2
  13   7   2 18845.8 495.308   1
  13   7   3 8829.10 304.053   1
   5  -7  12 18211.5 474.524  -2
  13   7   4 18211.5 474.524   1
  13   7   5 7674.52 296.459   1
  13   7   6 18004.3 204.464   1
   9  -7  11 11601.8 201.463  -2
  13   7   7 11601.8 201.463   1
  13   7   8 1193.54 79.3168   1
  11  -7  11 1092.08 114.825  -2
  13   7   9 1092.08 114.825   1
  13   7  10 3114.65 94.0836   1
  13  -7  11 1075.37 119.330  -2
  13   7  11 1075.37 119.330   1
  13   7  12 940.634 93.4219   1
  15  -7  11 3841.20 144.387  -2
  13   7  13 3841.20 144.387   1
  13   7  14 920.227 111.671   1
  17  -7  11 688.682 165.449  -2
  13   7  15 688.682 165.449   1
  13   7  16 3632.79 151.226   1
  19  -7  11 1838.08 181.617  -2
  13   7  17 1838.08 181.617   1
  13   7  18 987.394 146.128   1
  13   7  19 3969.54 159.833   1
  23  -7  10 12961.9 240.851  -2
  13   7  20 12961.9 240.851   1
  13   7  21 2216.36 158.300   1
  25  -7  10 1530.06 194.106  -2
  13   7  22 1530.06 194.106   1
  13   7  23 967.933 141.257   1
  27  -7  10 193.707 179.295  -2
  13   7  24 193.707 179.295   1
  13   7  25 354.406 138.512   1
  29  -7  10 2516.87 181.807  -2
  13   7  26 2516.87 181.807   1
  13   7  27 368.898 120.128   1
  31  -7  10 204.934 223.076  -2
  13   7  28 204.934 223.076   1
 -13  -7 -29-9.82876 122.534   1
 -13   9  30 79.2106 111.502   1
 -13   9  29 60.0609 119.197   1
  29  -9 -14 681.736 176.702  -2
 -13   9  28 681.736 176.702   1
 -13   9  27 16.6868 146.458   1
  27  -9 -14 389.386 198.754  -2
 -13   9  26 389.386 198.754   1
 -25  -9  14 970.933 328.002  -2
  13   9 -24 970.933 328.002   1
  13   9 -23 295.386 259.547   1
 -23  -9  14 366.185 349.676  -2
  13   9 -22 366.185 349.676   1
  13   9 -21 175.897 274.913   1
 -21  -9  14 2033.24 358.262  -2
  13   9 -20 2033.24 358.262   1
 -19  -9  13 6365.53 382.685  -2
  13   9 -19 6365.53 382.685   1
  13   9 -18-43.6091 265.053   1
 -17  -9  13 7079.75 369.299  -2
  13   9 -17 7079.75 369.299   1
  13  -9 -16 980.197 209.585   1
 -15  -9  13 1661.14 214.802  -2
  13   9 -15 1661.14 214.802   1
  13   9 -14 1422.13 157.386   1
 -13  -9  13 18718.3 310.779  -2
  13   9 -13 18718.3 310.779   1
  13   9 -12 161.256 141.224   1
 -11  -9  13 623.667 188.538  -2
  13   9 -11 623.667 188.538   1
  13   9 -10 9202.88 221.948   1
  -9  -9  13 4275.18 242.658  -2
  13   9  -9 4275.18 242.658   1
  13   9  -8 2619.57 177.056   1
   7  -9 -13 4985.35 220.812  -2
 -13   9   7 4985.35 220.812   1
  -5  -9  12 6787.45 349.648  -2
  13   9  -6 6787.45 349.648   1
  13   9  -5 778.530 142.736   1
  -3  -9  12 1153.16 284.487  -2
  13   9  -4 1153.16 284.487   1
  13   9  -3 8584.31 200.064   1
  -1  -9  12 3912.00 239.747  -2
  13   9  -2 3912.00 239.747   1
  13   9  -1 229.909 154.921   1
   1  -9  12 1362.80 202.379  -2
  13   9   0 1362.80 202.379   1
  13   9   1 1640.07 155.295   1
   3  -9  12 3288.58 212.505  -2
  13   9   2 3288.58 212.505   1
  13   9   3 14949.3 217.096   1
   5  -9  12 5312.96 223.703  -2
  13   9   4 5312.96 223.703   1
  13   9   5 17150.0 433.530   1
  13   9   6 3065.79 274.077   1
   9  -9  11 1416.99 317.177  -2
  13   9   7 1416.99 317.177   1
  13   9   8 1577.79 134.593   1
  11  -9  11 129.041 317.386  -2
  13   9   9 129.041 317.386   1
  13   9  10 11737.5 397.694   1
  13  -9  11 963.846 332.052  -2
  13   9  11 963.846 332.052   1
  13   9  12 1854.27 142.343   1
  15  -9  11 7687.12 194.691  -2
  13   9  13 7687.12 194.691   1
  13   9  14 57.3718 119.289   1
  17  -9  11 4840.53 186.103  -2
  13   9  15 4840.53 186.103   1
  13   9  16 5364.61 152.495   1
  19  -9  11 1475.73 172.434  -2
  13   9  17 1475.73 172.434   1
  13   9  18 2965.78 146.369   1
  13   9  19 1695.73 148.102   1
  23  -9  10 597.119 170.281  -2
  13   9  20 597.119 170.281   1
  13   9  21 800.783 127.122   1
  25  -9  10 215.104 159.873  -2
  13   9  22 215.104 159.873   1
  13   9  23 5659.18 145.743   1
  27  -9  10 3102.25 164.583  -2
  13   9  24 3102.25 164.583   1
  13   9  25 1394.41 180.175   1
  29  -9  10 938.841 207.311  -2
  13   9  26 938.841 207.311   1
  13   9  27 410.561 113.207   1
  29 -11 -14 790.769 138.040  -2
 -13  11  28 790.769 138.040   1
 -13  11  27 14.2390 113.970   1
  27 -11 -14 972.456 173.723  -2
 -13  11  26 972.456 173.723   1
 -13  11  25 592.496 135.837   1
  -3 -11  12 92.6890 107.056  -2
  13  11  -4 92.6890 107.056   1
  13  11  -3 6908.45 320.766   1
  -1 -11  12 4607.31 395.207  -2
  13  11  -2 4607.31 395.207   1
  13  11  -1 1617.73 256.148   1
   1 -11  12 3869.00 403.498  -2
  13  11   0 3869.00 403.498   1
  13  11   1 2602.81 285.854   1
   3 -11  12 2550.13 367.278  -2
  13  11   2 2550.13 367.278   1
  13  11   3 11756.6 391.880   1
   5 -11  12 29496.9 647.012  -2
  13  11   4 29496.9 647.012   1
  13  11  18 6.35411 153.166   1
 -27  11 -10 347.613 238.246  -2
 -13 -11 -24 347.613 238.246   1
  25 -13 -14 119.021 130.670  -2
 -13  13  24 119.021 130.670   1
 -13  13  23 355.710 120.133   1
  14   0 -36 114.101 197.585   1
  14   0 -34 310.157 233.748   1
  14   0 -32 72.7347 265.543   1
  14   0 -30 564.622 289.299   1
  14   0 -28 1143.13 304.493   1
  14   0 -26 181.882 293.329   1
 -14   0  24 1905.61 195.890   1
 -14   0  22 1406.97 187.252   1
 -14   0  20 9610.47 356.176   1
 -20   0  14 11049.4 337.052  -2
  14   0 -20 11049.4 337.052   1
  18   0 -14 9545.29 236.991  -2
 -14   0  18 9545.29 236.991   1
 -16   0  14 3875.76 258.853  -2
  14   0 -16 3875.76 258.853   1
 -14   0  14 1241.11 251.589  -2
  14   0 -14 1241.11 251.589   1
 -12   0  14 26280.0 428.918  -2
  14   0 -12 26280.0 428.918   1
 -10   0  14 3154.30 262.871  -2
  14   0 -10 3154.30 262.871   1
  14   0  -8 37579.5 429.689   1
  14   0  -6 395.909 186.482   1
  14   0  -4 11369.6 282.184   1
  14   0  -2 14187.3 292.429   1
  14   0   0 2906.07 204.226   1
  14   0   2 34438.4 388.897   1
  14   0   4 18592.0 294.849   1
   8   0  12 85293.0 512.914  -2
  14   0   6 85293.0 512.914   1
  10   0  12 83138.2 404.494  -2
  14   0   8 83138.2 404.494   1
 -12   0 -12 37624.3 657.109  -2
 -14   0 -10 37624.3 657.109   1
 -14   0 -12 21635.8 557.015  -2
 -14   0 -12 21635.8 557.015   1
  16   0  12 72190.5 286.426  -2
  14   0  14 72190.5 286.426   1
  18   0  12 33757.7 211.826  -2
  14   0  16 33757.7 211.826   1
  14   0  18 26006.0 176.387   1
  14   0  20 1693.93 116.429   1
 -22   0 -12 4975.94 495.976  -2
 -14   0 -20 4975.94 495.976   1
  14   0  22 1746.51 119.291   1
  14   0  24 3774.11 126.929   1
  14   0  26 2043.19 153.187   1
  14   0  28 1197.00 140.511   1
  14   0  30 454.188 205.463   1
  14   0  32 63.6391 158.931   1
  14   2 -36-75.8169 125.669   1
  14   2 -35 118.166 145.164   1
  14  -2 -34 164.278 158.782   1
  14  -2 -33 68.9420 178.044   1
  14  -2 -32-58.1484 187.850   1
 -32   2  15 961.426 262.580  -2
  14  -2 -31 961.426 262.580   1
  14  -2 -30 182.378 204.962   1
 -30  -2  15 296.281 264.995  -2
  14   2 -29 296.281 264.995   1
  14   2 -28 58.6509 200.307   1
 -28   2  15 4604.63 294.805  -2
  14  -2 -27 4604.63 294.805   1
  14  -2 -26 367.095 204.730   1
 -26  -2  15 397.761 258.390  -2
  14   2 -25 397.761 258.390   1
  14  -2 -24 1209.12 137.005   1
 -24   2  15 10328.6 206.703  -2
  14  -2 -23 10328.6 206.703   1
  14  -2 -22-40.6739 124.758   1
 -14   2  21 3155.71 158.741   1
 -22  -2  15 5494.54 353.107  -2
  14   2 -21 5494.54 353.107   1
 -14   2  20 148.908 134.916   1
 -20   2  14 52.9142 266.932  -2
  14  -2 -20 52.9142 266.932   1
  14   2 -19 845.715 125.640   1
  18  -2 -14 147.899 87.9809  -2
 -14   2  18 147.899 87.9809   1
 -14   2  17 4010.70 130.168   1
 -16  -2  14 4016.46 161.815  -2
  14   2 -16 4016.46 161.815   1
 -14   2  15 898.127 103.355   1
 -14  -2  14 310.801 133.783  -2
  14   2 -14 310.801 133.783   1
 -14   2  13 239.890 107.051   1
 -12   2  14 6629.18 186.210  -2
  14  -2 -12 6629.18 186.210   1
 -14   2  11 22942.7 220.597   1
 -10  -2  14 14865.4 217.238  -2
  14   2 -10 14865.4 217.238   1
  14  -2  -9 27588.2 236.637   1
  14   2  -8 1129.97 126.985   1
  14   2  -7 6999.47 264.330   1
  -6   2  13 62300.0 599.500  -2
  14  -2  -7 62300.0 599.500   1
  14   2  -6 25110.8 280.204   1
  -4   2  13 31975.6 334.622  -2
  14  -2  -5 31975.6 334.622   1
  14   2  -4 2353.80 164.431   1
  -2  -2  13 16839.7 308.971  -2
  14   2  -3 16839.7 308.971   1
  14   2  -2 7352.21 187.628   1
   0  -2  13 6953.96 156.953  -2
  14   2  -1 6953.96 156.953   1
  14   2   0 9247.24 117.420   1
  -2   2 -13 20935.2 159.136  -2
 -14  -2  -1 20935.2 159.136   1
 -14  -2  -2 291.125 109.323   1
   4   2  13 2773.60 155.517  -2
  14  -2   3 2773.60 155.517   1
  14   2   4 162.335 82.1804   1
   6   2  13 4679.04 159.249  -2
  14  -2   5 4679.04 159.249   1
   8  -2  12 2297.57 131.079  -2
  14   2   6 2297.57 131.079   1
 -14  -2  -7 4098.68 114.673   1
  10  -2  12 10588.1 159.463  -2
  14   2   8 10588.1 159.463   1
 -14  -2  -9 4822.54 109.738   1
 -12  -2 -12 7884.70 276.053  -2
 -14   2 -10 7884.70 276.053   1
 -14  -2 -11 11246.0 241.204   1
 -14   2 -12 4162.11 241.996  -2
 -14  -2 -12 4162.11 241.996   1
 -14  -2 -13 20940.8 107.037   1
  16   2  12 492.641 73.8333  -2
  14  -2  14 492.641 73.8333   1
  14   2  15 212.133 61.4088   1
  18  -2  12 2343.68 91.5557  -2
  14   2  16 2343.68 91.5557   1
 -14   2 -17 6719.12 97.8334   1
  20  -2  11 9840.96 223.924  -2
  14   2  17 9840.96 223.924   1
  14   2  18 427.644 70.9345   1
  22   2  11 10320.1 118.661  -2
  14  -2  19 10320.1 118.661   1
  14  -2  20 10480.2 102.833   1
 -22   2 -12 12403.4 419.456  -2
 -14  -2 -20 12403.4 419.456   1
  24  -2  11 880.169 104.116  -2
  14   2  21 880.169 104.116   1
  14   2  22 1023.65 94.1493   1
  26  -2  11 303.624 121.599  -2
  14   2  23 303.624 121.599   1
  14  -2  24 946.108 94.8708   1
  28   2  11 3885.08 148.639  -2
  14  -2  25 3885.08 148.639   1
  14   2  26 1105.77 100.711   1
  30  -2  11 3459.50 178.492  -2
  14   2  27 3459.50 178.492   1
 -14  -2 -28 85.7787 103.558   1
  32  -2  11 2623.54 154.872  -2
  14   2  29 2623.54 154.872   1
  14   2  30 87.5671 99.8399   1
  14  -2  31 1823.01 139.636   1
  14   2  32 94.6418 157.863   1
  14   4 -35-40.1411 188.155   1
  14   4 -34 135.196 136.155   1
  14   4 -33 13.2235 153.599   1
  14  -4 -32 40.8215 170.965   1
 -32   4  15 335.376 239.385  -2
  14  -4 -31 335.376 239.385   1
  14   4 -30-41.7096 187.802   1
 -30   4  15 188.842 250.033  -2
  14  -4 -29 188.842 250.033   1
  14  -4 -28 1643.70 193.617   1
 -28   4  15 15.3197 251.563  -2
  14  -4 -27 15.3197 251.563   1
  14   4 -26 927.398 194.709   1
 -26  -4  15 30.4724 247.690  -2
  14   4 -25 30.4724 247.690   1
 -14  -4  24 1832.27 156.295   1
 -24   4  15 508.716 143.217  -2
  14  -4 -23 508.716 143.217   1
  14  -4 -22 574.235 112.568   1
 -14   4  21 446.633 136.150   1
 -22  -4  15 535.687 339.750  -2
  14   4 -21 535.687 339.750   1
  14  -4 -20 3894.14 177.136   1
 -20   4  14 7315.89 282.155  -2
  14  -4 -20 7315.89 282.155   1
 -14   4  19 802.749 125.256   1
 -18  -4  14 836.749 216.445  -2
  14   4 -18 836.749 216.445   1
  14   4 -17 825.848 113.648   1
 -16  -4  14 1892.81 155.941  -2
  14   4 -16 1892.81 155.941   1
 -14   4  15 114.132 107.818   1
 -14  -4  14 682.290 192.832  -2
  14   4 -14 682.290 192.832   1
  14   4 -13 4029.33 185.814   1
 -12  -4  14 6245.16 256.289  -2
  14   4 -12 6245.16 256.289   1
  14   4 -11 776.085 158.193   1
  10  -4 -14 2388.21 215.955  -2
 -14   4  10 2388.21 215.955   1
  14  -4  -9 887.325 111.550   1
 -14  -4   8 62575.4 394.221   1
  -8   4  14 110599. 533.132  -2
  14  -4  -8 110599. 533.132   1
  14   4  -7 9360.78 290.645   1
   6   4 -13 10402.9 182.929  -2
 -14  -4   7 10402.9 182.929   1
 -14  -4   6 4218.55 114.751   1
  -4  -4  13 21875.1 188.247  -2
  14   4  -5 21875.1 188.247   1
  14  -4  -4 4293.61 103.712   1
  -2  -4  13 835.278 74.7016  -2
  14   4  -3 835.278 74.7016   1
  14   4  -2 25732.5 183.100   1
   0  -4  13 2398.47 128.610  -2
  14   4  -1 2398.47 128.610   1
  14   4   0 6116.57 110.222   1
   2  -4  13 16250.1 250.882  -2
  14   4   1 16250.1 250.882   1
 -14  -4  -2 6872.69 151.198   1
   4  -4  13 9939.85 197.848  -2
  14   4   3 9939.85 197.848   1
 -14  -4  -4 17191.1 193.278   1
 -14  -4  -5 2481.36 118.346   1
  14   4   6 488.163 148.668   1
  -8   4 -12 17090.2 268.820  -2
 -14  -4  -6 17090.2 268.820   1
 -14  -4  -7 4742.72 132.586   1
 -10   4 -12 1384.71 131.442  -2
 -14  -4  -8 1384.71 131.442   1
 -14  -4  -9 6879.27 155.510   1
 -12  -4 -12 9310.02 247.130  -2
 -14   4 -10 9310.02 247.130   1
  14  -4  11 3314.33 82.8679   1
  14  -4  12 1294.03 83.4799  -2
  14   4  12 1294.03 83.4799   1
  14   4  13 616.583 68.8162   1
  16  -4  12 14763.5 141.077  -2
  14   4  14 14763.5 141.077   1
  14   4  15 58.4028 75.4141   1
  18  -4  12 19513.9 151.950  -2
  14   4  16 19513.9 151.950   1
  14   4  17 1805.23 101.196   1
  20   4  11 2147.15 233.085  -2
  14  -4  17 2147.15 233.085   1
  14   4  18 2591.74 138.726   1
  20   4  12 3353.85 225.730  -2
  14  -4  18 3353.85 225.730   1
  22  -4  11 1100.45 137.950  -2
  14   4  19 1100.45 137.950   1
  14   4  20 1617.52 118.770   1
  24  -4  11 1391.25 157.306  -2
  14   4  21 1391.25 157.306   1
  14   4  22 770.351 120.400   1
  26  -4  11 1550.10 180.692  -2
  14   4  23 1550.10 180.692   1
  14   4  24 1415.32 138.139   1
  28  -4  11 2847.92 179.512  -2
  14   4  25 2847.92 179.512   1
  14   4  26 295.929 127.422   1
  30  -4  11 1478.24 164.643  -2
  14   4  27 1478.24 164.643   1
  14   4  28 2139.65 122.744   1
  32  -4  11 274.980 136.633  -2
  14   4  29 274.980 136.633   1
  14   4  30 746.480 190.945   1
  14   4  31-56.4836 158.341   1
  14   6 -34 49.2006 167.631   1
  14   6 -33 9.09332 195.441   1
  14   6 -32-51.6027 202.385   1
 -32  -6  15-45.9538 298.925  -2
  14   6 -31-45.9538 298.925   1
  14   6 -30 76.1474 238.450   1
 -30  -6  15 220.950 348.208  -2
  14   6 -29 220.950 348.208   1
  14   6 -28 133.569 280.842   1
  28  -6 -15 674.088 165.622  -2
 -14   6  27 674.088 165.622   1
 -14   6  26 354.888 132.016   1
 -26  -6  15 664.868 376.218  -2
  14   6 -25 664.868 376.218   1
  14   6 -24 555.830 299.826   1
 -24  -6  15 1471.02 370.851  -2
  14   6 -23 1471.02 370.851   1
  14   6 -22 1014.66 273.230   1
  14  -6 -21 5013.79 341.210   1
 -22  -6  15 6312.96 377.600  -2
  14   6 -21 6312.96 377.600   1
 -20   6  14 10645.3 304.567  -2
  14  -6 -20 10645.3 304.567   1
  14   6 -19 155.758 195.636   1
 -18   6  14 6065.15 279.727  -2
  14  -6 -18 6065.15 279.727   1
  14  -6 -17 4072.65 158.701   1
 -16  -6  14 7181.31 217.281  -2
  14   6 -16 7181.31 217.281   1
  14  -6 -15 189.787 132.989   1
 -14  -6  14 4148.13 195.685  -2
  14   6 -14 4148.13 195.685   1
  14  -6 -13 3844.01 143.505   1
 -12  -6  14 1533.29 169.515  -2
  14   6 -12 1533.29 169.515   1
  14  -6 -11 10268.4 240.717   1
 -10  -6  14 19331.2 321.464  -2
  14   6 -10 19331.2 321.464   1
  14   6  -9 278.604 153.220   1
  14   6  -8 31133.3 461.708   1
  -8   6  14 49886.6 582.445  -2
  14  -6  -8 49886.6 582.445   1
  -6  -6  13 21352.2 295.917  -2
  14   6  -7 21352.2 295.917   1
  14  -6  -6 509.702 146.257   1
  -4   6  13 6237.03 324.358  -2
  14  -6  -5 6237.03 324.358   1
  14   6  -4 892.855 134.480   1
  -2  -6  13 3525.22 203.215  -2
  14   6  -3 3525.22 203.215   1
  14   6  -2 41030.7 334.986   1
   0  -6  13 10271.3 402.018  -2
  14   6  -1 10271.3 402.018   1
  14   6   0 504.668 201.912   1
   2  -6  13 1602.71 196.348  -2
  14   6   1 1602.71 196.348   1
  14   6   2 3329.40 159.083   1
   4  -6  13 3590.61 200.269  -2
  14   6   3 3590.61 200.269   1
  14   6   4 8845.30 193.657   1
  14   6   5 2016.32 139.650   1
   8  -6  12 3821.03 183.931  -2
  14   6   6 3821.03 183.931   1
  14   6   7 1278.62 103.553   1
  10  -6  12 982.070 100.853  -2
  14   6   8 982.070 100.853   1
  14   6   9 2037.16 77.9998   1
  12  -6  12 3559.27 113.603  -2
  14   6  10 3559.27 113.603   1
  14  -6  11 20639.5 118.277   1
  14  -6  12 4240.86 111.998  -2
  14   6  12 4240.86 111.998   1
  14   6  13 16476.7 123.107   1
  16  -6  12 656.233 134.131  -2
  14   6  14 656.233 134.131   1
  14   6  15 393.781 104.912   1
  18  -6  12 13612.0 188.411  -2
  14   6  16 13612.0 188.411   1
  14   6  17 1647.12 118.518   1
  14   6  18 812.927 145.028   1
  20   6  12 3854.72 286.959  -2
  14  -6  18 3854.72 286.959   1
  22  -6  11 1971.90 172.357  -2
  14   6  19 1971.90 172.357   1
  14   6  20 1613.67 137.357   1
  24  -6  11 3825.45 185.818  -2
  14   6  21 3825.45 185.818   1
  14  -6  22 454.189 133.375   1
  26  -6  11 5224.94 218.454  -2
  14   6  23 5224.94 218.454   1
  14   6  24 333.150 143.703   1
  28  -6  11 2084.65 190.083  -2
  14   6  25 2084.65 190.083   1
  14   6  26 376.788 136.341   1
  30  -6  11 3086.40 178.766  -2
  14   6  27 3086.40 178.766   1
  14   6  28 1980.72 119.831   1
  32  -6  11 1029.43 176.024  -2
  14   6  29 1029.43 176.024   1
  14   6  30 1017.91 155.310   1
 -14   8  30-21.9088 95.0935   1
 -30  -8  15-11.4600 137.183  -2
  14   8 -29-11.4600 137.183   1
 -14   8  28 59.8424 111.179   1
  28  -8 -15 470.973 157.811  -2
 -14   8  27 470.973 157.811   1
 -14   8  26 52.8632 123.356   1
 -26  -8  15 1025.92 349.868  -2
  14   8 -25 1025.92 349.868   1
  14   8 -24 833.606 283.693   1
 -24  -8  15 307.821 351.870  -2
  14   8 -23 307.821 351.870   1
  14   8 -22 548.497 261.281   1
 -22  -8  15 6397.05 370.921  -2
  14   8 -21 6397.05 370.921   1
 -20  -8  14 3075.83 361.587  -2
  14   8 -20 3075.83 361.587   1
  14   8 -19 57.9551 271.482   1
 -18  -8  14 903.793 251.808  -2
  14   8 -18 903.793 251.808   1
  14   8 -17 2463.16 217.931   1
 -16  -8  14 2834.88 223.250  -2
  14   8 -16 2834.88 223.250   1
  14   8 -15 9150.71 206.781   1
 -14  -8  14 5325.45 240.079  -2
  14   8 -14 5325.45 240.079   1
  14   8 -13 2346.06 161.150   1
 -12  -8  14 408.009 183.986  -2
  14   8 -12 408.009 183.986   1
  14   8 -11 219.149 135.246   1
 -10  -8  14 391.213 173.314  -2
  14   8 -10 391.213 173.314   1
  14  -8  -9 401.863 133.156   1
  -8  -8  14 3870.99 222.979  -2
  14   8  -8 3870.99 222.979   1
  -6  -8  13 9601.27 229.236  -2
  14   8  -7 9601.27 229.236   1
  14   8  -6 2942.68 158.339   1
  -4  -8  13 25633.3 303.038  -2
  14   8  -5 25633.3 303.038   1
  14   8  -4 8484.58 187.477   1
  -2  -8  13 4274.59 206.524  -2
  14   8  -3 4274.59 206.524   1
  14   8  -2 3696.21 153.451   1
   0  -8  13 15520.5 95.5428  -2
  14   8  -1 15520.5 95.5428   1
  14   8   0 663.862 131.098   1
   2  -8  13 10127.6 240.396  -2
  14   8   1 10127.6 240.396   1
  14   8   2 4523.08 157.108   1
   4  -8  13 12140.1 236.705  -2
  14   8   3 12140.1 236.705   1
  14   8   4 2989.70 151.889   1
  14   8   5 1816.74 123.055   1
   8  -8  12 24289.5 336.952  -2
  14   8   6 24289.5 336.952   1
  14   8   7 2788.00 125.115   1
  10  -8  12 19819.0 198.010  -2
  14   8   8 19819.0 198.010   1
  14   8   9 1089.09 96.8565   1
  12  -8  12 6241.70 157.136  -2
  14   8  10 6241.70 157.136   1
  14   8  11 217.405 128.747   1
  14  -8  12 10145.8 187.171  -2
  14   8  12 10145.8 187.171   1
  14   8  13 1484.93 128.305   1
  16  -8  12 10121.5 211.880  -2
  14   8  14 10121.5 211.880   1
  14   8  15 391.507 134.033   1
  18  -8  12 3136.09 187.277  -2
  14   8  16 3136.09 187.277   1
  14   8  17 2129.61 147.572   1
  14   8  18 3135.60 160.054   1
  22  -8  11 1747.08 188.767  -2
  14   8  19 1747.08 188.767   1
  14   8  20 622.237 137.079   1
  24  -8  11 1661.91 187.354  -2
  14   8  21 1661.91 187.354   1
  14   8  22-14.5994 131.843   1
  26  -8  11 7346.78 208.342  -2
  14   8  23 7346.78 208.342   1
  14   8  24 80.3219 124.026   1
  28  -8  11 1498.88 162.847  -2
  14   8  25 1498.88 162.847   1
  14   8  26 328.291 108.527   1
  30  -8  11 380.159 207.635  -2
  14   8  27 380.159 207.635   1
 -14  -8 -28 71.2854 182.284   1
  30 -10 -15 432.361 137.620  -2
 -14  10  29 432.361 137.620   1
 -14  10  28 9.41135 114.946   1
  28 -10 -15 114.217 158.308  -2
 -14  10  27 114.217 158.308   1
 -14  10  26 5.98582 129.545   1
  26 -10 -15 602.728 187.097  -2
 -14  10  25 602.728 187.097   1
 -12 -10  14 4896.40 401.230  -2
  14  10 -12 4896.40 401.230   1
  14  10 -11 82.0400 247.995   1
 -10 -10  14 8700.24 415.068  -2
  14  10 -10 8700.24 415.068   1
  14  10  -9 4484.84 314.903   1
  -4 -10  13 2825.82 331.498  -2
  14  10  -5 2825.82 331.498   1
  14  10  -4 2370.73 256.956   1
  -2 -10  13 4754.10 395.718  -2
  14  10  -3 4754.10 395.718   1
  14  10  -2 810.145 157.374   1
   0 -10  13 13135.0 298.291  -2
  14  10  -1 13135.0 298.291   1
  14  10   0 250.728 152.768   1
   2 -10  13 11370.7 276.153  -2
  14  10   1 11370.7 276.153   1
  14  10   2 485.694 158.604   1
   4 -10  13 6539.32 241.867  -2
  14  10   3 6539.32 241.867   1
  14  10   4 319.999 258.506   1
  14  10   5 683.168 192.321   1
   8 -10  12 26721.4 420.201  -2
  14  10   6 26721.4 420.201   1
  14  10   7 6506.17 168.983   1
  10 -10  12 28965.2 711.428  -2
  14  10   8 28965.2 711.428   1
  18 -10  12 1806.33 220.175  -2
  14  10  16 1806.33 220.175   1
  14  10  17 165.236 176.851   1
  14  10  18 4970.38 133.943   1
  22 -10  11 899.540 152.380  -2
  14  10  19 899.540 152.380   1
  14  10  20 6089.38 137.389   1
  24 -10  11 1995.79 147.410  -2
  14  10  21 1995.79 147.410   1
  14  10  22 575.000 100.746   1
  26 -10  11 1343.83 200.124  -2
  14  10  23 1343.83 200.124   1
 -28  10 -11 484.339 72.9581  -2
 -14 -10 -25 484.339 72.9581   1
 -14  12  26 34.4494 103.002   1
  26 -12 -15 649.465 147.803  -2
 -14  12  25 649.465 147.803   1
 -14  12  24 130.754 128.958   1
 -14  14  21 295.489 104.788   1
  15   1 -36-13.8226 130.023   1
  15   1 -35 40.8639 150.024   1
  15  -1 -34 232.762 167.233   1
  15   1 -33 97.0179 169.829   1
 -33  -1  16 366.914 252.028  -2
  15   1 -32 366.914 252.028   1
  15   1 -31 589.524 200.331   1
 -31  -1  16 676.777 266.303  -2
  15   1 -30 676.777 266.303   1
  15   1 -29 288.424 207.641   1
 -29  -1  16 1818.52 274.299  -2
  15   1 -28 1818.52 274.299   1
  15   1 -27 55.3400 194.546   1
 -27  -1  16 47.2405 129.316  -2
  15   1 -26 47.2405 129.316   1
  15  -1 -25 603.513 157.641   1
  25   1 -16 1319.25 179.678  -2
 -15  -1  24 1319.25 179.678   1
 -15   1  23 1831.63 139.512   1
 -15  -1  22 140.200 149.360   1
 -23  -1  16 2914.67 342.169  -2
  15   1 -22 2914.67 342.169   1
 -15  -1  21 560.742 148.739   1
 -21   1  15 5270.38 327.293  -2
  15  -1 -21 5270.38 327.293   1
 -15   1  20 30.6327 117.522   1
  19  -1 -15 4958.73 158.866  -2
 -15   1  19 4958.73 158.866   1
  15  -1 -18 181.282 80.0076   1
  17  -1 -15 539.087 116.508  -2
 -15   1  17 539.087 116.508   1
  15  -1 -16 837.480 102.144   1
  15  -1 -15 770.617 144.911  -2
 -15   1  15 770.617 144.911   1
 -15   1  14 1107.74 117.338   1
 -13   1  15 8552.84 204.207  -2
  15  -1 -13 8552.84 204.207   1
  15  -1 -12 95592.2 484.459   1
 -11  -1  15 12212.3 249.847  -2
  15   1 -11 12212.3 249.847   1
  15   1 -10 9802.69 210.845   1
  15  -1  -9 49132.7 359.074   1
  15   1  -8 5610.23 255.583   1
  -7   1  14 13965.0 359.102  -2
  15  -1  -8 13965.0 359.102   1
  15   1  -7 18841.6 248.883   1
  -5  -1  14 26126.3 309.251  -2
  15   1  -6 26126.3 309.251   1
  15   1  -5 630.900 150.799   1
  -3  -1  14 802.581 196.701  -2
  15   1  -4 802.581 196.701   1
  15  -1  -3 9335.63 195.252   1
  -1  -1  14 13844.7 286.586  -2
  15   1  -2 13844.7 286.586   1
  15  -1  -1 5398.42 174.609   1
   1  -1  14 1740.74 190.589  -2
  15   1   0 1740.74 190.589   1
  15  -1   1 576.209 132.692   1
   3   1  14 30035.3 298.810  -2
  15  -1   2 30035.3 298.810   1
  15   1   3 5253.09 165.150   1
   5  -1  14 19128.3 246.852  -2
  15   1   4 19128.3 246.852   1
  15  -1   5 22027.6 330.535   1
  -7   1 -13 33907.0 313.699  -2
 -15  -1  -5 33907.0 313.699   1
 -15  -1  -6 1414.04 115.308   1
   9  -1  13 6765.64 154.942  -2
  15   1   7 6765.64 154.942   1
 -15  -1  -8 1473.25 99.8766   1
 -11   1 -13 8005.67 294.748  -2
 -15  -1  -9 8005.67 294.748   1
 -15   1 -10 1661.83 166.207   1
 -13   1 -13 629.653 212.790  -2
 -15  -1 -11 629.653 212.790   1
 -15   1 -12 798.241 61.8661   1
  15   1  13 12960.5 109.792  -2
  15  -1  13 12960.5 109.792   1
  15  -1  14 1123.67 62.0576   1
 -17   1 -13 1928.98 85.8107  -2
 -15  -1 -15 1928.98 85.8107   1
  15   1  16 307.676 77.7957   1
  19   1  12 1473.61 193.331  -2
  15  -1  16 1473.61 193.331   1
  15   1  17 308.345 70.9112   1
  21  -1  12 4612.29 105.437  -2
  15   1  18 4612.29 105.437   1
  15   1  19 132.813 77.5344   1
 -21   1 -13 69.5143 166.288  -2
 -15  -1 -19 69.5143 166.288   1
  23  -1  12 2410.17 106.643  -2
  15   1  20 2410.17 106.643   1
  15  -1  21 11563.7 111.554   1
  25   1  12 5943.84 127.069  -2
  15  -1  22 5943.84 127.069   1
  15  -1  23 7880.25 103.722   1
  27   1  12 6665.48 128.572  -2
  15  -1  24 6665.48 128.572   1
  15   1  25 105.242 88.9839   1
  29   1  12 5728.88 152.679  -2
  15  -1  26 5728.88 152.679   1
  15  -1  27 303.695 94.4110   1
  31   1  12 281.835 115.302  -2
  15  -1  28 281.835 115.302   1
  15   1  29 57.9955 104.666   1
  15  -1  30 426.381 143.236   1
  15  -1  31 37.4297 124.212   1
  15   3 -36-39.0560 162.815   1
  15  -3 -35 52.8759 131.470   1
  15   3 -34 445.220 151.491   1
  15   3 -33 76.0068 157.074   1
 -33  -3  16 794.825 236.000  -2
  15   3 -32 794.825 236.000   1
  15  -3 -31 307.697 194.954   1
 -31   3  16 495.739 244.578  -2
  15  -3 -30 495.739 244.578   1
  15   3 -29 55.3797 194.200   1
 -29  -3  16 550.309 265.170  -2
  15   3 -28 550.309 265.170   1
  15  -3 -27 201.502 205.005   1
 -27  -3  16 191.000 254.343  -2
  15   3 -26 191.000 254.343   1
  15  -3 -25 337.236 200.231   1
 -15   3  24 116.848 276.964   1
 -25   3  16 3881.35 256.328  -2
  15  -3 -24 3881.35 256.328   1
 -15   3  23 105.150 129.572   1
 -15  -3  22-28.7242 136.201   1
 -23  -3  16 2284.47 363.319  -2
  15   3 -22 2284.47 363.319   1
 -15   3  21 211.595 257.354   1
 -21   3  15 1586.25 222.569  -2
  15  -3 -21 1586.25 222.569   1
 -15   3  20 1688.27 144.573   1
 -19  -3  15 1915.43 168.033  -2
  15   3 -19 1915.43 168.033   1
  15   3 -18 153.006 91.2022   1
  17  -3 -15 2883.20 162.188  -2
 -15   3  17 2883.20 162.188   1
 -15   3  16 76.0563 105.054   1
 -15  -3  15 1978.21 190.401  -2
  15   3 -15 1978.21 190.401   1
 -15   3  14 3275.23 160.844   1
 -13  -3  15 4542.20 180.275  -2
  15   3 -13 4542.20 180.275   1
 -15   3  12 15639.1 199.277   1
  11  -3 -15 4368.22 181.137  -2
 -15   3  11 4368.22 181.137   1
  15   3 -10 9543.82 146.317   1
 -15  -3   9 4544.61 147.173   1
   9  -3 -15 7782.24 343.523  -2
 -15   3   9 7782.24 343.523   1
 -15  -3   8 8426.84 206.152   1
   7  -3 -14 21247.6 303.489  -2
 -15   3   8 21247.6 303.489   1
 -15   3   7 526.923 111.078   1
   5  -3 -14 20065.0 209.209  -2
 -15   3   6 20065.0 209.209   1
 -15  -3   5 2020.22 98.6435   1
   3   3 -14 37989.0 240.592  -2
 -15  -3   4 37989.0 240.592   1
  15  -3  -3 6081.76 104.211   1
  -1  -3  14 42213.1 290.913  -2
  15   3  -2 42213.1 290.913   1
 -15  -3   1 595.006 87.6722   1
  -1   3 -14 44468.3 258.293  -2
 -15  -3   0 44468.3 258.293   1
 -15  -3  -1 2365.18 136.757   1
  -3   3 -14 38116.0 297.450  -2
 -15  -3  -2 38116.0 297.450   1
 -15  -3  -3 11327.9 168.042   1
 -15  -3  -4 1049.32 109.992   1
  15   3   5 14673.0 271.926   1
  -7   3 -13 18564.9 269.780  -2
 -15  -3  -5 18564.9 269.780   1
  15   3   6 7463.59 141.337   1
   9  -3  13 9878.19 178.400  -2
  15   3   7 9878.19 178.400   1
 -15  -3  -8 120.019 87.9523   1
  11  -3  13 260.648 148.761  -2
  15   3   9 260.648 148.761   1
 -15  -3 -10 115.400 253.730   1
 -13   3 -13 1458.00 93.7256  -2
 -15  -3 -11 1458.00 93.7256   1
  15  -3  12 1516.83 64.2372   1
  15   3  13 515.706 85.1385  -2
  15  -3  13 515.706 85.1385   1
  15   3  14 58.9148 71.8030   1
  17  -3  13 935.048 100.941  -2
  15   3  15 935.048 100.941   1
  15   3  16 541.040 106.057   1
  19  -3  12 2003.94 167.776  -2
  15   3  16 2003.94 167.776   1
  15  -3  17 4278.89 83.0007   1
  15   3  18 12454.5 232.686   1
  21  -3  12 13609.0 163.045  -2
  15   3  18 13609.0 163.045   1
  15   3  19 5352.98 110.494   1
 -21  -3 -13 6773.63 385.681  -2
 -15   3 -19 6773.63 385.681   1
  23   3  12 8352.47 148.344  -2
  15  -3  20 8352.47 148.344   1
  15   3  21 3157.27 127.600   1
  25  -3  12 2054.66 160.008  -2
  15   3  22 2054.66 160.008   1
  15  -3  23 1279.63 120.926   1
  27  -3  12 12268.1 230.343  -2
  15   3  24 12268.1 230.343   1
  15   3  25 51.9264 128.647   1
  29  -3  12 2085.67 174.488  -2
  15   3  26 2085.67 174.488   1
  15   3  27 1018.92 127.421   1
  31  -3  12 941.797 152.059  -2
  15   3  28 941.797 152.059   1
  15  -3  29 752.727 93.2503   1
  15   3  30 384.619 183.384   1
  35  -3  11 103.180 204.137  -2
  15   3  31 103.180 204.137   1
  15   5 -34 13.3546 188.677   1
  15   5 -33 503.971 217.110   1
 -33  -5  16 93.6880 317.078  -2
  15   5 -32 93.6880 317.078   1
  15   5 -31 706.738 257.746   1
 -31  -5  16 240.505 216.736  -2
  15   5 -30 240.505 216.736   1
  15   5 -29 27.2339 176.619   1
 -29   5  16 403.078 238.638  -2
  15  -5 -28 403.078 238.638   1
  15  -5 -27-70.9778 179.507   1
 -27  -5  16 1003.74 237.298  -2
  15   5 -26 1003.74 237.298   1
  15  -5 -25 570.102 181.948   1
 -25  -5  16 65.1597 221.682  -2
  15   5 -24 65.1597 221.682   1
  15   5 -23 1825.51 305.892   1
  15  -5 -22 117.886 247.141   1
 -23  -5  16 2832.55 384.326  -2
  15   5 -22 2832.55 384.326   1
 -15   5  21 100.641 185.931   1
 -21   5  15 839.184 341.620  -2
  15  -5 -21 839.184 341.620   1
  15  -5 -20 117.515 147.250   1
 -19   5  15 4682.37 217.327  -2
  15  -5 -19 4682.37 217.327   1
 -15   5  18-65.3921 147.353   1
 -17  -5  15 1864.36 154.442  -2
  15   5 -17 1864.36 154.442   1
 -15   5  16 1412.67 117.719   1
 -15  -5  15 20596.4 257.701  -2
  15   5 -15 20596.4 257.701   1
  15  -5 -14 2547.95 126.163   1
 -13  -5  15 782.092 146.576  -2
  15   5 -13 782.092 146.576   1
  15   5 -12 13672.2 214.785   1
 -11  -5  15 3172.49 182.914  -2
  15   5 -11 3172.49 182.914   1
  15  -5 -10 2343.94 142.870   1
  15   5  -9 22003.4 395.736   1
  -9   5  15 34425.8 352.171  -2
  15  -5  -9 34425.8 352.171   1
  15   5  -8 2453.17 234.630   1
  -7   5  14 6126.89 166.779  -2
  15  -5  -8 6126.89 166.779   1
  15  -5  -7 2469.54 107.612   1
   5   5 -14 6360.81 182.838  -2
 -15  -5   6 6360.81 182.838   1
  15   5  -5 1175.44 128.789   1
   3   5 -14 5918.22 197.879  -2
 -15  -5   4 5918.22 197.879   1
  15   5  -3 4167.92 137.369   1
  -1  -5  14 18492.9 121.877  -2
  15   5  -2 18492.9 121.877   1
 -15  -5   1 17832.0 171.013   1
   1  -5  14 2886.73 181.966  -2
  15   5   0 2886.73 181.966   1
 -15  -5  -1 14591.2 203.172   1
   3  -5  14 12751.4 221.653  -2
  15   5   2 12751.4 221.653   1
 -15  -5  -3 8884.63 173.552   1
 -15  -5  -4 77.2383 111.666   1
  -7   5 -13 27046.0 259.334  -2
 -15  -5  -5 27046.0 259.334   1
  15   5   6 1750.79 118.758   1
   9  -5  13 2016.97 167.752  -2
  15   5   7 2016.97 167.752   1
  15   5   8 553.136 66.3781   1
  11  -5  13 3767.08 107.404  -2
  15   5   9 3767.08 107.404   1
  15   5  10 2492.41 80.6001   1
  13  -5  13 704.389 89.2528  -2
  15   5  11 704.389 89.2528   1
  15   5  12 2144.79 82.0135   1
  15   5  13 283.394 102.227  -2
  15  -5  13 283.394 102.227   1
  15  -5  14 232.977 82.5184   1
  17   5  13 1828.43 117.424  -2
  15  -5  15 1828.43 117.424   1
  15   5  16 1250.41 107.573   1
  19  -5  12 1510.66 207.899  -2
  15   5  16 1510.66 207.899   1
  15   5  17 31.7725 135.616   1
  19   5  13 18.5110 250.561  -2
  15  -5  17 18.5110 250.561   1
  21  -5  12 497.940 150.437  -2
  15   5  18 497.940 150.437   1
  15  -5  19 133.991 113.962   1
  23  -5  12 240.470 155.876  -2
  15   5  20 240.470 155.876   1
  15   5  21 11733.2 175.172   1
  25  -5  12 655.234 179.439  -2
  15   5  22 655.234 179.439   1
  15   5  23 402.239 128.659   1
  27  -5  12 1281.21 171.747  -2
  15   5  24 1281.21 171.747   1
  15   5  25 1139.72 127.574   1
  29  -5  12 631.949 179.896  -2
  15   5  26 631.949 179.896   1
  15   5  27 6468.66 158.125   1
  31  -5  12 1208.64 161.980  -2
  15   5  28 1208.64 161.980   1
  15   5  29 23.9315 93.8781   1
  15   5  30 23.2482 157.115   1
 -33  -7  16 270.491 243.876  -2
  15   7 -32 270.491 243.876   1
  15   7 -31-14.3944 200.533   1
 -31  -7  16-11.9517 291.965  -2
  15   7 -30-11.9517 291.965   1
  15   7 -29 393.157 233.140   1
  29  -7 -16 389.615 100.510  -2
 -15   7  28 389.615 100.510   1
 -15   7  27 792.150 125.741   1
  27  -7 -16 1453.85 171.291  -2
 -15   7  26 1453.85 171.291   1
  15   7 -25 4073.42 314.359   1
 -25  -7  16 872.567 383.147  -2
  15   7 -24 872.567 383.147   1
  15   7 -23 1615.84 284.694   1
 -23  -7  16 1568.82 353.347  -2
  15   7 -22 1568.82 353.347   1
 -21  -7  15 3740.49 380.261  -2
  15   7 -21 3740.49 380.261   1
  15   7 -20 3137.82 292.213   1
 -19   7  15 969.754 266.841  -2
  15  -7 -19 969.754 266.841   1
  15  -7 -18 3574.64 209.409   1
 -17  -7  15 1781.19 200.253  -2
  15   7 -17 1781.19 200.253   1
  15  -7 -16 214.961 142.862   1
 -15   7  15 1826.67 201.331  -2
  15  -7 -15 1826.67 201.331   1
  15   7 -14 2985.98 160.175   1
 -13   7  15 4252.57 211.279  -2
  15  -7 -13 4252.57 211.279   1
  15   7 -12 20256.0 231.201   1
 -11  -7  15 5034.87 209.435  -2
  15   7 -11 5034.87 209.435   1
  15  -7 -10 398.639 131.294   1
  15   7  -9 1977.63 240.323   1
  -9   7  15 2407.94 215.898  -2
  15  -7  -9 2407.94 215.898   1
  -7  -7  14 7541.62 191.180  -2
  15   7  -8 7541.62 191.180   1
  15  -7  -7 8923.41 163.173   1
  -5   7  14 6509.95 246.652  -2
  15  -7  -6 6509.95 246.652   1
  15  -7  -5 2185.24 165.493   1
  -3  -7  14 3819.42 186.347  -2
  15   7  -4 3819.42 186.347   1
  15   7  -3 239.156 142.841   1
  -1  -7  14 12919.2 327.492  -2
  15   7  -2 12919.2 327.492   1
  15   7  -1 453.694 151.268   1
   1  -7  14 18777.7 353.309  -2
  15   7   0 18777.7 353.309   1
  15   7   1 3011.93 121.896   1
   3  -7  14 16717.6 212.886  -2
  15   7   2 16717.6 212.886   1
  15   7   3 608.227 109.934   1
  15   7   4 14013.9 171.779   1
   7   7  13 15656.5 178.661  -2
  15  -7   5 15656.5 178.661   1
  15   7   6 1426.38 84.2392   1
   9   7  13 12204.4 142.732  -2
  15  -7   7 12204.4 142.732   1
  15   7   8 4310.45 99.3583   1
  11  -7  13 8219.95 151.517  -2
  15   7   9 8219.95 151.517   1
  15   7  10 6138.06 110.207   1
  13  -7  13 3541.20 139.349  -2
  15   7  11 3541.20 139.349   1
  15   7  12 1889.71 85.5338   1
  15  -7  13 229.711 115.887  -2
  15   7  13 229.711 115.887   1
  15   7  14 411.777 114.318   1
  17  -7  13 2730.83 178.833  -2
  15   7  15 2730.83 178.833   1
  15   7  16 60.1380 184.186   1
  19  -7  12 167.062 256.524  -2
  15   7  16 167.062 256.524   1
  15   7  17 7582.53 165.834   1
  21  -7  12 2050.63 193.092  -2
  15   7  18 2050.63 193.092   1
  15   7  19 3504.05 155.522   1
  23  -7  12 7201.15 224.728  -2
  15   7  20 7201.15 224.728   1
  15   7  21 222.658 141.334   1
  25  -7  12 957.741 178.192  -2
  15   7  22 957.741 178.192   1
  15   7  23 778.296 136.675   1
  27  -7  12 7481.53 211.690  -2
  15   7  24 7481.53 211.690   1
  15   7  25 1312.54 133.780   1
  29  -7  12 744.971 152.721  -2
  15   7  26 744.971 152.721   1
  15   7  27 368.230 105.206   1
 -31   7 -12-46.3460 158.251  -2
 -15  -7 -28-46.3460 158.251   1
 -15   9  29 22.1877 111.561   1
  29  -9 -16 175.237 153.099  -2
 -15   9  28 175.237 153.099   1
 -15   9  27 615.899 134.792   1
  27  -9 -16 1047.61 158.813  -2
 -15   9  26 1047.61 158.813   1
  15   9 -25 511.059 238.110   1
 -25  -9  16 1198.56 320.581  -2
  15   9 -24 1198.56 320.581   1
  15   9 -23 543.814 263.935   1
 -23  -9  16 1209.71 342.897  -2
  15   9 -22 1209.71 342.897   1
 -21  -9  15 270.676 340.609  -2
  15   9 -21 270.676 340.609   1
  15   9 -20 204.237 264.411   1
 -19  -9  15 9140.45 398.835  -2
  15   9 -19 9140.45 398.835   1
  15   9 -18 615.527 253.980   1
 -17  -9  15 5512.51 387.056  -2
  15   9 -17 5512.51 387.056   1
  15   9 -16 3025.28 290.957   1
 -15  -9  15 5268.53 250.886  -2
  15   9 -15 5268.53 250.886   1
  15   9 -14 4368.43 182.945   1
 -13  -9  15 2235.74 215.419  -2
  15   9 -13 2235.74 215.419   1
  15   9 -12 1082.28 157.790   1
 -11  -9  15 2216.42 205.115  -2
  15   9 -11 2216.42 205.115   1
  15   9 -10 15160.6 224.281   1
  15   9  -9 6381.48 216.456   1
  -9   9  15 6295.33 427.698  -2
  15  -9  -9 6295.33 427.698   1
  -7  -9  14 4481.39 234.993  -2
  15   9  -8 4481.39 234.993   1
  15   9  -7 187.434 166.683   1
  -5  -9  14 7154.43 321.420  -2
  15   9  -6 7154.43 321.420   1
  15   9  -5 590.248 207.890   1
  -3  -9  14 2204.33 215.770  -2
  15   9  -4 2204.33 215.770   1
  15   9  -3 75.1673 151.852   1
  -1  -9  14 18513.6 327.779  -2
  15   9  -2 18513.6 327.779   1
  15   9  -1 1428.95 162.431   1
   1  -9  14 2704.37 220.349  -2
  15   9   0 2704.37 220.349   1
  15   9   1 8746.68 199.960   1
   3  -9  14 4900.27 196.431  -2
  15   9   2 4900.27 196.431   1
  15   9   3 10003.5 182.407   1
  15   9   4 44.8504 124.617   1
   7  -9  13 6267.72 261.908  -2
  15   9   5 6267.72 261.908   1
  15   9   6 91.2224 167.959   1
   9  -9  13 9017.72 224.601  -2
  15   9   7 9017.72 224.601   1
  15   9   8 5171.92 167.528   1
  11  -9  13 2144.56 188.740  -2
  15   9   9 2144.56 188.740   1
  15   9  10 189.347 130.294   1
  13  -9  13 9452.43 274.118  -2
  15   9  11 9452.43 274.118   1
  15   9  12 146.746 157.067   1
  15  -9  13 2345.18 231.902  -2
  15   9  13 2345.18 231.902   1
  15   9  14 2375.96 127.929   1
  17  -9  13 351.398 155.339  -2
  15   9  15 351.398 155.339   1
  15   9  16 979.610 188.669   1
  19  -9  12 2361.99 236.321  -2
  15   9  16 2361.99 236.321   1
  15   9  17 1724.79 137.266   1
  21  -9  12 2163.53 176.245  -2
  15   9  18 2163.53 176.245   1
  15   9  19 447.877 126.110   1
  23  -9  12 1602.76 168.797  -2
  15   9  20 1602.76 168.797   1
  15   9  21 5901.71 148.995   1
  25  -9  12 474.882 154.602  -2
  15   9  22 474.882 154.602   1
  15   9  23 377.691 109.512   1
  27  -9  12 379.970 130.523  -2
  15   9  24 379.970 130.523   1
  15   9  25 407.220 143.649   1
 -15  11  27 179.959 104.869   1
  27 -11 -16 423.723 145.733  -2
 -15  11  26 423.723 145.733   1
 -15  11  25 74.6300 120.181   1
  15  11   6 480.691 159.226   1
   9 -11  13 412.721 198.027  -2
  15  11   7 412.721 198.027   1
 -15  13  23 32.8152 109.118   1
  15  13   3 1048.38 155.501   1
  15  13   4 7.37200 144.786   1
  15  15  -1 138.587 127.635   1
  16   0 -36 135.440 183.264   1
  16   0 -34-178.545 220.404   1
  16   0 -32 287.446 255.426   1
  16   0 -30 38.6396 276.028   1
  16   0 -28 291.079 303.486   1
  16   0 -26 3156.53 303.631   1
 -16   0  24 905.157 197.757   1
 -16   0  22 1413.01 197.008   1
 -20   0  16 11147.5 268.833  -2
  16   0 -20 11147.5 268.833   1
  18   0 -16 7260.71 194.526  -2
 -16   0  18 7260.71 194.526   1
 -16   0  16 3975.27 279.464  -2
  16   0 -16 3975.27 279.464   1
 -14   0  16 4314.14 285.947  -2
  16   0 -14 4314.14 285.947   1
 -12   0  16 13031.4 340.526  -2
  16   0 -12 13031.4 340.526   1
  16   0 -10 1698.18 213.453   1
  16   0  -8 2925.69 231.719   1
  16   0  -6 23102.8 386.329   1
  16   0  -4 7353.71 265.037   1
  16   0  -2 1417.82 203.921   1
  16   0   0 2245.65 219.458   1
  16   0   2 2102.05 200.182   1
   6   0  14 8010.93 279.938  -2
  16   0   4 8010.93 279.938   1
   8   0  14 26574.6 376.907  -2
  16   0   6 26574.6 376.907   1
  10   0  14 37574.8 370.512  -2
  16   0   8 37574.8 370.512   1
 -12   0 -14 31565.8 697.181  -2
 -16   0 -10 31565.8 697.181   1
 -14   0 -14 71983.7 290.786  -2
 -16   0 -12 71983.7 290.786   1
  16   0  14 662.941 116.067  -2
  16   0  14 662.941 116.067   1
 -16   0 -16 54500.3 227.666   1
  16   0  18 1759.26 110.155   1
  16   0  20 42096.4 232.205   1
  16   0  22 471.954 115.675   1
  16   0  24 143.957 111.744   1
  16   0  26 740.687 143.628   1
  16   0  28 1935.09 127.955   1
  34   0  12 1368.17 244.725  -2
  16   0  30 1368.17 244.725   1
  16   2 -36 36.6411 168.007   1
  16   2 -35 132.342 134.996   1
  16  -2 -34 92.0902 154.719   1
  16  -2 -33 413.287 246.136   1
 -34  -2  17 844.270 325.939  -2
  16   2 -33 844.270 325.939   1
  16  -2 -32 111.848 184.959   1
 -32  -2  17 145.013 243.336  -2
  16   2 -31 145.013 243.336   1
  16   2 -30 23.6787 191.437   1
 -30  -2  17 540.549 267.499  -2
  16   2 -29 540.549 267.499   1
  16   2 -28 261.570 200.817   1
 -28  -2  17 1590.91 275.862  -2
  16   2 -27 1590.91 275.862   1
  16  -2 -26 701.232 207.475   1
 -26  -2  17 669.890 259.504  -2
  16   2 -25 669.890 259.504   1
 -16  -2  24 350.913 139.536   1
 -16  -2  23 4375.92 155.758   1
  16   2 -22 5.93186 148.470   1
 -22   2  16 92.8778 307.514  -2
  16  -2 -22 92.8778 307.514   1
 -16  -2  21 119.505 118.949   1
  20  -2 -16 2377.84 182.306  -2
 -16   2  20 2377.84 182.306   1
 -16   2  19 2695.90 143.109   1
  18  -2 -16 1926.15 132.613  -2
 -16   2  18 1926.15 132.613   1
 -16   2  17 1653.73 88.3557   1
  16  -2 -16 2119.69 66.0318  -2
 -16   2  16 2119.69 66.0318   1
  16   2 -15 1290.88 108.601   1
  14  -2 -16 3841.06 165.912  -2
 -16   2  14 3841.06 165.912   1
  16   2 -13 1056.20 113.341   1
  12  -2 -16 2741.77 158.441  -2
 -16   2  12 2741.77 158.441   1
  16   2 -11 139.464 114.488   1
  16   2 -10 479.978 120.209   1
  16   2  -9 5266.39 181.404   1
  -8   2  15 7016.32 359.885  -2
  16  -2  -9 7016.32 359.885   1
 -16   2   8 19645.2 210.911   1
  -6  -2  15 50833.1 407.601  -2
  16   2  -7 50833.1 407.601   1
  16   2  -6 14790.8 249.578   1
  -4  -2  15 20931.3 345.860  -2
  16   2  -5 20931.3 345.860   1
  16   2  -4 1005.15 159.891   1
  -2   2  15 67057.3 557.987  -2
  16  -2  -3 67057.3 557.987   1
  16  -2  -2 101.344 96.5040   1
   0   2  15 35653.0 259.056  -2
  16  -2  -1 35653.0 259.056   1
  16  -2   0 3195.84 162.526   1
  -2   2 -15 59372.1 350.268  -2
 -16  -2  -1 59372.1 350.268   1
 -16  -2  -2 4990.47 145.906   1
 -16  -2  -3 28054.6 297.155   1
   4   2  15 31507.7 420.937  -2
  16  -2   3 31507.7 420.937   1
  -6   2 -14 22090.7 225.779  -2
 -16  -2  -4 22090.7 225.779   1
 -16  -2  -5 4364.80 135.199   1
   8  -2  14 14018.7 270.140  -2
  16   2   6 14018.7 270.140   1
 -16  -2  -7 31807.4 309.826   1
 -10   2 -14 14735.6 277.667  -2
 -16  -2  -8 14735.6 277.667   1
 -16  -2  -9 11340.2 402.011   1
 -12   2 -14 3977.18 123.288  -2
 -16  -2 -10 3977.18 123.288   1
  16   2  11 7122.37 82.7663   1
  14   2  14 427.469 74.1223  -2
  16  -2  12 427.469 74.1223   1
  16   2  13 3844.19 69.1300   1
  16  -2  14 1961.96 84.8406  -2
  16   2  14 1961.96 84.8406   1
  16  -2  15 6182.18 95.1187   1
  18  -2  13 9133.05 220.640  -2
  16   2  15 9133.05 220.640   1
  16   2  16 170.268 71.4548   1
  20   2  13 17448.7 133.148  -2
  16  -2  17 17448.7 133.148   1
  16   2  18 9658.93 101.932   1
 -20   2 -14 10565.7 540.077  -2
 -16  -2 -18 10565.7 540.077   1
  22  -2  13 1565.27 103.553  -2
  16   2  19 1565.27 103.553   1
  16  -2  20 347.975 80.1404   1
  24   2  13 2826.95 116.806  -2
  16  -2  21 2826.95 116.806   1
  16  -2  22 4211.04 94.4159   1
  26   2  13 1807.34 113.343  -2
  16  -2  23 1807.34 113.343   1
  16   2  24 1828.03 95.6589   1
  28   2  13 1589.80 132.487  -2
  16  -2  25 1589.80 132.487   1
  16   2  26 1103.79 124.846   1
  30   2  13 630.379 159.019  -2
  16  -2  27 630.379 159.019   1
  16   2  28 230.183 113.944   1
  16   2  29 2867.97 114.357   1
  34  -2  12 338.737 164.553  -2
  16   2  30 338.737 164.553   1
  16   2  31 1530.85 168.170   1
  16   4 -35 131.057 178.092   1
  16   4 -34 169.558 203.354   1
 -34  -4  17-53.9236 289.534  -2
  16   4 -33-53.9236 289.534   1
  16  -4 -32 73.7368 155.054   1
 -32   4  17 182.837 220.128  -2
  16  -4 -31 182.837 220.128   1
  16   4 -30 288.456 174.982   1
 -30   4  17 326.212 242.311  -2
  16  -4 -29 326.212 242.311   1
  16   4 -28 425.155 185.098   1
 -28   4  17 228.080 243.729  -2
  16  -4 -27 228.080 243.729   1
  16  -4 -26 667.383 188.628   1
 -26   4  17 118.491 238.946  -2
  16  -4 -25 118.491 238.946   1
  16  -4 -24 915.298 189.156   1
 -16   4  23 843.178 128.536   1
 -24  -4  17 2937.17 383.142  -2
  16   4 -23 2937.17 383.142   1
  16  -4 -22 1130.53 189.724   1
 -22  -4  16 1808.69 225.110  -2
  16   4 -22 1808.69 225.110   1
  16  -4 -21 1100.24 123.621   1
 -20   4  16 1424.44 158.101  -2
  16  -4 -20 1424.44 158.101   1
  16  -4 -19-59.9366 141.050   1
  18  -4 -16 4456.93 186.147  -2
 -16   4  18 4456.93 186.147   1
  16   4 -17 36.7954 112.974   1
 -16  -4  16 11497.2 234.212  -2
  16   4 -16 11497.2 234.212   1
 -16   4  15 280.427 118.593   1
  14  -4 -16 1553.26 156.911  -2
 -16   4  14 1553.26 156.911   1
 -16   4  13 403.776 116.946   1
 -12  -4  16 9325.00 248.065  -2
  16   4 -12 9325.00 248.065   1
 -16   4  11 2852.76 147.455   1
  16   4 -10 9697.25 230.954   1
 -10   4  16 14383.1 397.840  -2
  16  -4 -10 14383.1 397.840   1
 -16  -4   9 504.025 135.247   1
  -8   4  15 752.046 199.244  -2
  16  -4  -9 752.046 199.244   1
 -16   4   8 2805.46 116.910   1
   6  -4 -15 11211.1 173.663  -2
 -16   4   7 11211.1 173.663   1
 -16  -4   6 873.006 102.789   1
  -4  -4  15 35.4411 54.1843  -2
  16   4  -5 35.4411 54.1843   1
  16  -4  -4 35594.7 262.417   1
  -2  -4  15 1521.98 157.657  -2
  16   4  -3 1521.98 157.657   1
 -16  -4   2 16421.0 186.945   1
   0   4 -15 20375.3 244.975  -2
 -16  -4   1 20375.3 244.975   1
  16   4   0 1091.53 163.853   1
  -2   4 -15 2297.24 222.878  -2
 -16  -4  -1 2297.24 222.878   1
 -16  -4  -2 70725.9 371.807   1
 -16  -4  -3 8888.81 166.254   1
   6  -4  14 2396.49 148.565  -2
  16   4   4 2396.49 148.565   1
 -16  -4  -5 7313.38 153.383   1
  -8   4 -14 611.849 139.162  -2
 -16  -4  -6 611.849 139.162   1
 -16  -4  -7 116.021 100.954   1
  10  -4  14 7347.10 109.295  -2
  16   4   8 7347.10 109.295   1
  16   4   9 608.199 66.2807   1
  12  -4  14 1676.69 93.0637  -2
  16   4  10 1676.69 93.0637   1
  16   4  11 128.095 68.0805   1
  14  -4  14 16159.0 138.404  -2
  16   4  12 16159.0 138.404   1
  16   4  13 81.4570 72.7385   1
  16  -4  14 15626.5 142.979  -2
  16   4  14 15626.5 142.979   1
 -16   4 -15 1019.46 110.754   1
  18  -4  13 1587.71 169.836  -2
  16   4  15 1587.71 169.836   1
  16  -4  16 54.7926 84.3455   1
  20  -4  13 2081.37 121.757  -2
  16   4  17 2081.37 121.757   1
  16  -4  18 2328.09 98.6922   1
  22  -4  13 765.046 156.051  -2
  16   4  19 765.046 156.051   1
  16   4  20 11506.9 155.362   1
  24  -4  13 3105.64 167.762  -2
  16   4  21 3105.64 167.762   1
  16   4  22 1227.00 121.107   1
  26  -4  13 1121.51 174.113  -2
  16   4  23 1121.51 174.113   1
  16   4  24 986.100 134.450   1
  28  -4  13 2869.77 174.148  -2
  16   4  25 2869.77 174.148   1
  16   4  26 584.795 124.841   1
  30  -4  13 295.105 147.209  -2
  16   4  27 295.105 147.209   1
  16   4  28 450.709 105.205   1
  16   4  29 186.851 93.0656   1
  34  -4  12 842.475 205.427  -2
  16   4  30 842.475 205.427   1
 -34  -6  17 217.386 240.638  -2
  16   6 -33 217.386 240.638   1
  16   6 -32 46.5767 210.696   1
 -32  -6  17 663.261 294.320  -2
  16   6 -31 663.261 294.320   1
  16   6 -30 362.402 249.594   1
 -30  -6  17 538.683 336.877  -2
  16   6 -29 538.683 336.877   1
  16   6 -28 74.4983 250.678   1
 -28  -6  17 541.427 368.339  -2
  16   6 -27 541.427 368.339   1
  16   6 -26 82.8282 289.087   1
 -26  -6  17 419.849 397.420  -2
  16   6 -25 419.849 397.420   1
  16   6 -24 192.241 290.885   1
 -24  -6  17 1869.56 368.218  -2
  16   6 -23 1869.56 368.218   1
  16   6 -22 490.854 276.167   1
  16   6 -21 1485.10 286.324   1
 -20  -6  16 1536.88 263.372  -2
  16   6 -20 1536.88 263.372   1
  16  -6 -19 5276.04 231.749   1
 -18   6  16 3879.20 267.604  -2
  16  -6 -18 3879.20 267.604   1
  16  -6 -17 2168.97 148.846   1
 -16  -6  16 1097.53 90.3888  -2
  16   6 -16 1097.53 90.3888   1
  16   6 -15 1117.93 141.107   1
 -14  -6  16 7695.64 223.815  -2
  16   6 -14 7695.64 223.815   1
  16  -6 -13 5552.28 163.130   1
 -12  -6  16 1742.47 179.591  -2
  16   6 -12 1742.47 179.591   1
  16   6 -11 35.5664 128.329   1
  16   6 -10 1634.09 228.470   1
 -10   6  16 7724.38 238.393  -2
  16  -6 -10 7724.38 238.393   1
  16   6  -9 2131.40 244.912   1
  -8   6  15 2504.39 306.175  -2
  16  -6  -9 2504.39 306.175   1
  16   6  -8 95.0318 145.851   1
  -6  -6  15 12431.1 278.249  -2
  16   6  -7 12431.1 278.249   1
  16   6  -6 441.042 148.109   1
  -4  -6  15 3777.07 226.124  -2
  16   6  -5 3777.07 226.124   1
  16   6  -4 52298.9 389.009   1
  -2  -6  15 23092.7 359.273  -2
  16   6  -3 23092.7 359.273   1
  16   6  -2 2646.40 125.824   1
   0  -6  15 8570.12 272.682  -2
  16   6  -1 8570.12 272.682   1
  16   6   0 3149.52 171.910   1
   2  -6  15 12633.7 277.489  -2
  16   6   1 12633.7 277.489   1
  16   6   2 16071.6 255.498   1
  16   6   3 4940.59 131.339   1
   6  -6  14 15845.4 195.466  -2
  16   6   4 15845.4 195.466   1
  16   6   5 520.280 74.7387   1
   8  -6  14 10866.5 120.924  -2
  16   6   6 10866.5 120.924   1
  16   6   7 5043.01 85.1594   1
  10   6  14 9541.94 150.172  -2
  16  -6   8 9541.94 150.172   1
  16   6   9 11080.3 121.763   1
  12  -6  14 2608.12 120.671  -2
  16   6  10 2608.12 120.671   1
  16   6  11 6398.27 101.145   1
  14  -6  14 770.944 109.659  -2
  16   6  12 770.944 109.659   1
  16   6  13 139.898 83.5916   1
  16  -6  14 26124.5 181.424  -2
  16   6  14 26124.5 181.424   1
  16   6  15 1144.53 97.7057   1
  18   6  13 1690.01 364.627  -2
  16  -6  15 1690.01 364.627   1
  16   6  16 12058.2 153.787   1
  20  -6  13 257.228 152.860  -2
  16   6  17 257.228 152.860   1
  16   6  18 735.037 121.239   1
  22  -6  13 95.6072 102.211  -2
  16   6  19 95.6072 102.211   1
  16   6  20 1061.28 135.859   1
  24  -6  13 3095.74 200.204  -2
  16   6  21 3095.74 200.204   1
  16   6  22 1061.85 148.471   1
  26  -6  13 783.668 186.045  -2
  16   6  23 783.668 186.045   1
  16   6  24 457.194 140.349   1
  28  -6  13 553.123 167.053  -2
  16   6  25 553.123 167.053   1
  16   6  26 310.492 122.278   1
  30  -6  13 361.325 146.511  -2
  16   6  27 361.325 146.511   1
  16   6  28 1200.95 92.2576   1
  16   8 -30 41.0314 179.674   1
 -30  -8  17 445.920 262.585  -2
  16   8 -29 445.920 262.585   1
 -16   8  28 446.703 106.090   1
  28  -8 -17 1757.49 155.743  -2
 -16   8  27 1757.49 155.743   1
 -16   8  26 1697.57 134.121   1
 -26  -8  17 646.063 346.372  -2
  16   8 -25 646.063 346.372   1
  16   8 -24 2610.54 287.677   1
 -24  -8  17 3362.70 383.867  -2
  16   8 -23 3362.70 383.867   1
 -22  -8  16 304.860 362.082  -2
  16   8 -22 304.860 362.082   1
  16   8 -21 287.738 274.846   1
 -20  -8  16 3449.85 377.537  -2
  16   8 -20 3449.85 377.537   1
  16   8 -19 2195.89 274.790   1
 -18  -8  16 6181.97 400.258  -2
  16   8 -18 6181.97 400.258   1
  16  -8 -17 2060.38 215.135   1
 -16   8  16 5400.02 244.611  -2
  16  -8 -16 5400.02 244.611   1
  16   8 -15 536.332 154.793   1
 -14  -8  16 3181.59 224.127  -2
  16   8 -14 3181.59 224.127   1
  16   8 -13 2279.76 166.556   1
 -12  -8  16 3281.15 210.645  -2
  16   8 -12 3281.15 210.645   1
  16   8 -11 6538.36 187.212   1
  16   8 -10 2.62763 171.287   1
 -10   8  16 2039.13 366.336  -2
  16  -8 -10 2039.13 366.336   1
  16   8  -9 4249.69 297.971   1
  -8  -8  15 5961.01 243.239  -2
  16   8  -9 5961.01 243.239   1
  16   8  -8 1147.08 137.281   1
  -6  -8  15 1860.54 179.819  -2
  16   8  -7 1860.54 179.819   1
  16   8  -6 71.0190 129.599   1
  -4  -8  15 4026.66 228.890  -2
  16   8  -5 4026.66 228.890   1
  16   8  -4 1060.55 159.558   1
  -2  -8  15 19041.8 99.7435  -2
  16   8  -3 19041.8 99.7435   1
  16   8  -2 5663.72 153.913   1
   0  -8  15 4731.60 199.323  -2
  16   8  -1 4731.60 199.323   1
  16   8   0 8469.58 168.532   1
   2  -8  15 852.161 164.293  -2
  16   8   1 852.161 164.293   1
  16   8   2 416.025 121.350   1
  16   8   3 6365.51 154.725   1
   6  -8  14 6414.96 190.711  -2
  16   8   4 6414.96 190.711   1
  16   8   5 3167.59 139.869   1
   8  -8  14 2032.75 160.573  -2
  16   8   6 2032.75 160.573   1
  16   8   7 1487.51 101.857   1
  10  -8  14 4757.57 155.823  -2
  16   8   8 4757.57 155.823   1
  16   8   9 4110.40 117.678   1
  12  -8  14 6310.29 172.650  -2
  16   8  10 6310.29 172.650   1
  16   8  11 3360.86 128.126   1
  14  -8  14 9160.81 201.878  -2
  16   8  12 9160.81 201.878   1
  16   8  13 3889.73 197.944   1
  16  -8  14 157.768 163.295  -2
  16   8  14 157.768 163.295   1
  16   8  15 977.399 198.314   1
  18  -8  13 5018.03 265.705  -2
  16   8  15 5018.03 265.705   1
  16   8  16 5471.62 162.790   1
  20  -8  13 5089.94 194.061  -2
  16   8  17 5089.94 194.061   1
  16   8  18 10027.2 176.252   1
  22  -8  13 3742.36 193.461  -2
  16   8  19 3742.36 193.461   1
  16   8  20 935.873 136.591   1
  24  -8  13 5310.47 194.571  -2
  16   8  21 5310.47 194.571   1
  16   8  22 49.6311 118.912   1
  26  -8  13 2357.38 169.308  -2
  16   8  23 2357.38 169.308   1
  16   8  24 62.4923 113.609   1
  28  -8  13 912.574 139.969  -2
  16   8  25 912.574 139.969   1
  16   8  26 53.0777 90.6989   1
 -30   8 -13 398.390 240.502  -2
 -16  -8 -27 398.390 240.502   1
 -16  10  28 5.80948 104.439   1
  28 -10 -17 196.348 138.471  -2
 -16  10  27 196.348 138.471   1
 -16  10  26-7.39144 126.096   1
 -16  10  25-68.1067 135.740   1
  16  10 -21-130.327 245.722   1
 -20 -10  16 1383.49 332.166  -2
  16  10 -20 1383.49 332.166   1
  16  10 -19 485.556 257.010   1
 -18 -10  16 3051.03 355.100  -2
  16  10 -18 3051.03 355.100   1
  16  10 -17 252.575 249.963   1
 -16 -10  16 808.984 322.765  -2
  16  10 -16 808.984 322.765   1
  16  10 -15 236.961 248.514   1
 -14 -10  16 2371.70 342.722  -2
  16  10 -14 2371.70 342.722   1
  16  10 -13-17.8406 248.031   1
 -12 -10  16 2972.27 342.407  -2
  16  10 -12 2972.27 342.407   1
  16  10 -11 644.273 253.107   1
  16  10 -10 199.549 175.029   1
  -8 -10  15 5926.46 260.416  -2
  16  10  -9 5926.46 260.416   1
  16  10  -8 4169.06 203.859   1
  -6 -10  15 2069.41 237.585  -2
  16  10  -7 2069.41 237.585   1
  16  10  -6 2165.98 183.904   1
  -4 -10  15 2330.08 240.696  -2
  16  10  -5 2330.08 240.696   1
  16  10  -4 166.470 171.505   1
  -2 -10  15 26817.1 396.093  -2
  16  10  -3 26817.1 396.093   1
  16  10  -2 925.626 151.658   1
   0 -10  15 23465.7 310.392  -2
  16  10  -1 23465.7 310.392   1
  16  10   0 1622.28 146.367   1
   2 -10  15 9845.40 234.009  -2
  16  10   1 9845.40 234.009   1
  16  10   2 2040.43 149.092   1
  16  10   3 527.240 141.104   1
   6 -10  14 4980.09 290.442  -2
  16  10   4 4980.09 290.442   1
  16  10   5 8679.52 362.485   1
   8 -10  14 12965.7 292.000  -2
  16  10   6 12965.7 292.000   1
  16  10   7 272.982 160.460   1
  10 -10  14 3820.20 240.161  -2
  16  10   8 3820.20 240.161   1
  16  10   9 1111.19 157.634   1
  20 -10  13 2054.36 211.804  -2
  16  10  17 2054.36 211.804   1
  16  10  18 1190.18 152.702   1
  22 -10  13 1528.64 198.653  -2
  16  10  19 1528.64 198.653   1
  16  10  20 291.049 138.260   1
 -16  12  25 697.145 107.253   1
 -16  12  24 403.624 108.886   1
   6 -12  14 2423.54 216.523  -2
  16  12   4 2423.54 216.523   1
  16  12   5 12346.9 227.971   1
   2 -14  15 261.934 184.944  -2
  16  14   1 261.934 184.944   1
  16  14   2 7835.78 186.768   1
  17   1 -36 40.7702 169.693   1
  17   1 -35-55.4315 136.520   1
  17  -1 -34 30.7005 153.271   1
  17   1 -33 117.758 171.196   1
 -33   1  18 533.654 231.798  -2
  17  -1 -32 533.654 231.798   1
  17   1 -31 19.9633 183.737   1
 -31   1  18 966.481 266.055  -2
  17  -1 -30 966.481 266.055   1
  17   1 -29 33.3032 207.887   1
 -29  -1  18 351.800 272.359  -2
  17   1 -28 351.800 272.359   1
  17   1 -27 489.458 212.938   1
 -27  -1  18 67.7849 153.625  -2
  17   1 -26 67.7849 153.625   1
  17  -1 -25 234.717 198.665   1
  17   1 -24 1354.95 144.000   1
 -17  -1  23 500.228 133.321   1
 -17  -1  22 1185.64 138.086   1
  21  -1 -17 1864.15 173.400  -2
 -17   1  21 1864.15 173.400   1
  17  -1 -20 199.668 119.442   1
 -19  -1  17 5092.64 177.902  -2
  17   1 -19 5092.64 177.902   1
 -17   1  18 304.354 87.4434   1
 -17  -1  17 1955.66 122.851  -2
  17   1 -17 1955.66 122.851   1
  17   1 -16 2580.97 95.1295   1
 -15  -1  17 593.174 123.034  -2
  17   1 -15 593.174 123.034   1
 -17   1  14 4907.52 144.359   1
 -13  -1  17 16942.9 224.322  -2
  17   1 -13 16942.9 224.322   1
  17  -1 -12 20266.0 271.321   1
  17   1 -11 8317.85 211.958   1
  17   1 -10 1390.70 221.935   1
  -9   1  16 1603.82 291.781  -2
  17  -1 -10 1603.82 291.781   1
  17  -1  -9 1109.57 157.292   1
  -7   1  16 14403.9 274.018  -2
  17  -1  -8 14403.9 274.018   1
  17  -1  -7 900.449 160.962   1
  -5   1  16 80.2082 80.3978  -2
  17  -1  -6 80.2082 80.3978   1
  17   1  -5 18034.9 256.878   1
  -3   1  16 5549.13 244.749  -2
  17  -1  -4 5549.13 244.749   1
  17   1  -3 3746.96 169.854   1
  -1   1  16 1534.62 202.702  -2
  17  -1  -2 1534.62 202.702   1
  17   1  -1 2597.71 159.823   1
   1   1  16 1112.88 188.617  -2
  17  -1   0 1112.88 188.617   1
  17  -1   1 12312.4 217.171   1
  17  -1   2 152.813 129.750   1
   5  -1  15 33047.2 306.991  -2
  17   1   3 33047.2 306.991   1
 -17  -1  -4 9744.69 173.836   1
  -7   1 -15 2086.12 151.009  -2
 -17  -1  -5 2086.12 151.009   1
 -17  -1  -6 34722.7 253.098   1
   9   1  15 15266.6 222.010  -2
  17  -1   7 15266.6 222.010   1
 -17  -1  -8 6711.92 156.845   1
 -11   1 -15 12065.8 233.540  -2
 -17  -1  -9 12065.8 233.540   1
  17   1  10 1570.11 61.4315   1
 -13   1 -15 5389.87 94.4423  -2
 -17  -1 -11 5389.87 94.4423   1
 -17  -1 -12 4338.07 71.4889   1
  15  -1  15 2173.68 87.2364  -2
  17   1  13 2173.68 87.2364   1
  17   1  14 3209.62 92.4325   1
  17  -1  14 7013.07 171.156  -2
  17   1  14 7013.07 171.156   1
 -17  -1 -15 205.138 67.6938   1
  19  -1  14 2443.94 102.925  -2
  17   1  16 2443.94 102.925   1
  17  -1  17 6784.97 93.9795   1
  21  -1  14 2143.13 107.052  -2
  17   1  18 2143.13 107.052   1
  17   1  19 833.708 85.7372   1
  23  -1  14 8797.11 136.851  -2
  17   1  20 8797.11 136.851   1
  17   1  21 1629.94 86.2206   1
  25   1  14 4870.98 125.794  -2
  17  -1  22 4870.98 125.794   1
  17  -1  23 261.673 80.8192   1
  27  -1  14 8426.41 131.013  -2
  17   1  24 8426.41 131.013   1
  17   1  25 2643.51 92.9059   1
  29   1  14 1873.05 128.434  -2
  17  -1  26 1873.05 128.434   1
  17   1  27 766.551 105.898   1
  31   1  13 1542.87 214.958  -2
  17  -1  27 1542.87 214.958   1
  17   1  28 2232.65 113.747   1
  33   1  13 479.872 183.212  -2
  17  -1  29 479.872 183.212   1
  17  -1  30 132.927 127.934   1
  17   3 -35 28.4574 171.352   1
  17   3 -34 186.624 138.089   1
  17  -3 -33 14.0598 152.475   1
 -33  -3  18 227.013 215.569  -2
  17   3 -32 227.013 215.569   1
  17   3 -31 138.647 177.841   1
 -31   3  18 1261.39 245.989  -2
  17  -3 -30 1261.39 245.989   1
  17   3 -29 66.3348 187.845   1
 -29   3  18 83.4009 246.363  -2
  17  -3 -28 83.4009 246.363   1
  17   3 -27 1209.84 207.826   1
 -27   3  18 4491.58 273.481  -2
  17  -3 -26 4491.58 273.481   1
  17  -3 -25 238.414 185.687   1
  17   3 -24 624.340 199.006   1
  17  -3 -23 605.356 128.527   1
 -17   3  22 3115.41 141.681   1
  21  -3 -17 935.384 186.937  -2
 -17   3  21 935.384 186.937   1
 -17   3  20 1050.55 138.584   1
 -19  -3  17 624.284 169.404  -2
  17   3 -19 624.284 169.404   1
 -17   3  18 155.135 95.0539   1
 -17  -3  17 582.275 150.509  -2
  17   3 -17 582.275 150.509   1
  17   3 -16 3200.24 132.139   1
 -15  -3  17 3039.73 165.501  -2
  17   3 -15 3039.73 165.501   1
  17   3 -14 2199.29 121.836   1
  13  -3 -17 1234.78 150.063  -2
 -17   3  13 1234.78 150.063   1
 -17   3  12 6995.62 163.113   1
 -17   3  11 11490.2 188.316   1
 -17   3  10 464.747 114.538   1
  -9   3  16 1216.19 288.679  -2
  17  -3 -10 1216.19 288.679   1
 -17   3   9 404.028 103.352   1
   7  -3 -16 20447.4 215.680  -2
 -17   3   8 20447.4 215.680   1
  17  -3  -7 723.145 111.562   1
   5  -3 -16 38368.5 263.671  -2
 -17   3   6 38368.5 263.671   1
 -17  -3   5 451.239 108.185   1
  -3  -3  16 1541.55 62.6919  -2
  17   3  -4 1541.55 62.6919   1
  17  -3  -3 61.9388 92.2953   1
  -1   3  16 2472.81 130.579  -2
  17  -3  -2 2472.81 130.579   1
 -17  -3   1 1843.24 139.543   1
  -1   3 -16 2533.44 179.451  -2
 -17  -3   0 2533.44 179.451   1
 -17  -3  -1 1358.20 132.377   1
 -17  -3  -2 455.578 155.444   1
   3   3  16 4969.35 302.575  -2
  17  -3   2 4969.35 302.575   1
  -5   3 -15 25086.5 308.989  -2
 -17  -3  -3 25086.5 308.989   1
 -17  -3  -4 1987.12 162.632   1
  -7   3 -15 8663.73 250.785  -2
 -17  -3  -5 8663.73 250.785   1
 -17  -3  -6 13498.0 231.894   1
  -9   3 -15 5940.05 240.833  -2
 -17  -3  -7 5940.05 240.833   1
  17   3   8 2383.35 75.4262   1
 -11   3 -15 4319.26 115.357  -2
 -17  -3  -9 4319.26 115.357   1
 -17  -3 -10 1632.50 70.7947   1
  13   3  15 4695.88 104.160  -2
  17  -3  11 4695.88 104.160   1
  17  -3  12 274.508 57.3633   1
 -15  -3 -15 922.610 82.3567  -2
 -17   3 -13 922.610 82.3567   1
  17   3  14 736.594 75.8475   1
  17   3  14 1315.93 212.215  -2
  17  -3  14 1315.93 212.215   1
  17   3  15 287.171 69.0415   1
  19  -3  14 523.551 95.9716  -2
  17   3  16 523.551 95.9716   1
  17   3  17 174.203 76.7778   1
  21  -3  14 4559.26 116.970  -2
  17   3  18 4559.26 116.970   1
  17   3  19 124.013 94.7002   1
  23  -3  14 1373.78 131.392  -2
  17   3  20 1373.78 131.392   1
  17   3  21 116.898 95.1756   1
  25  -3  14 9718.99 190.897  -2
  17   3  22 9718.99 190.897   1
  17   3  23 2285.93 123.117   1
  27  -3  14 4870.71 191.447  -2
  17   3  24 4870.71 191.447   1
  17   3  25 1945.08 133.922   1
  29  -3  14 739.600 154.995  -2
  17   3  26 739.600 154.995   1
  17   3  27 694.753 138.047   1
  31  -3  13 793.316 275.124  -2
  17   3  27 793.316 275.124   1
  17   3  28 1631.46 109.803   1
  33  -3  13 578.682 133.762  -2
  17   3  29 578.682 133.762   1
  17   3  30 214.958 161.163   1
  17   5 -34 60.1262 176.758   1
  17   5 -33 114.136 204.724   1
 -33  -5  18 59.6785 291.067  -2
  17   5 -32 59.6785 291.067   1
  17   5 -31 75.9060 244.286   1
 -31  -5  18 110.680 319.402  -2
  17   5 -30 110.680 319.402   1
  17   5 -29 135.821 275.031   1
 -29  -5  18 2508.41 385.142  -2
  17   5 -28 2508.41 385.142   1
  17   5 -27 2316.54 327.537   1
 -27  -5  18 384.983 377.295  -2
  17   5 -26 384.983 377.295   1
  17   5 -25 1426.26 316.034   1
  17   5 -24-205.731 283.278   1
  17   5 -23 720.635 300.753   1
  17   5 -22 754.753 293.784   1
 -21   5  17 662.324 195.760  -2
  17  -5 -21 662.324 195.760   1
  17  -5 -20 960.941 158.654   1
 -19  -5  17 14412.6 289.553  -2
  17   5 -19 14412.6 289.553   1
 -17   5  18 184.913 120.923   1
 -17  -5  17 367.400 149.738  -2
  17   5 -17 367.400 149.738   1
  17   5 -16 1567.26 122.216   1
 -15  -5  17 2693.29 164.323  -2
  17   5 -15 2693.29 164.323   1
  17  -5 -14 3029.72 129.167   1
 -13  -5  17 710.979 145.982  -2
  17   5 -13 710.979 145.982   1
  17  -5 -12 4633.84 139.553   1
  17   5 -11 15771.6 203.605   1
  11  -5 -17 46846.5 632.328  -2
 -17   5  11 46846.5 632.328   1
  17   5 -10 501.532 215.343   1
  -9   5  16 2045.14 207.799  -2
  17  -5 -10 2045.14 207.799   1
  17  -5  -9 1055.20 151.050   1
   7   5 -16 1306.98 159.696  -2
 -17  -5   8 1306.98 159.696   1
 -17  -5   7 1535.73 129.249   1
   5   5 -16 17147.3 270.687  -2
 -17  -5   6 17147.3 270.687   1
 -17  -5   5 4722.20 152.878   1
   3   5 -16 1487.91 165.761  -2
 -17  -5   4 1487.91 165.761   1
 -17  -5   3 2407.88 125.565   1
   1   5 -16 802.137 146.106  -2
 -17  -5   2 802.137 146.106   1
 -17  -5   1 10922.7 250.628   1
  -1   5 -16 2842.65 240.712  -2
 -17  -5   0 2842.65 240.712   1
  17   5   1 4852.59 158.821   1
 -17  -5  -2 10717.3 191.005   1
   5  -5  15 24352.1 261.680  -2
  17   5   3 24352.1 261.680   1
  17   5   4 590.717 98.6037   1
   7  -5  15 5174.80 105.624  -2
  17   5   5 5174.80 105.624   1
 -17  -5  -6 8742.73 83.4459   1
   9  -5  15 14541.2 129.331  -2
  17   5   7 14541.2 129.331   1
  17   5   8 15281.6 109.548   1
  11  -5  15 12311.3 151.708  -2
  17   5   9 12311.3 151.708   1
  17   5  10 7999.66 101.007   1
  13   5  15 6139.75 126.315  -2
  17  -5  11 6139.75 126.315   1
  17   5  12 32.6661 80.4048   1
  15  -5  15 2777.81 120.348  -2
  17   5  13 2777.81 120.348   1
  17   5  14 1656.02 117.179   1
  17   5  14 2364.71 187.649  -2
  17  -5  14 2364.71 187.649   1
  17   5  15 283.681 89.9113   1
  19  -5  14 779.333 123.136  -2
  17   5  16 779.333 123.136   1
  17   5  17 208.694 93.2061   1
  21  -5  14 2280.31 159.120  -2
  17   5  18 2280.31 159.120   1
  17   5  19 1075.11 122.325   1
  23  -5  14 4282.84 173.045  -2
  17   5  20 4282.84 173.045   1
  17   5  21 262.795 134.052   1
  25  -5  14 1904.59 177.524  -2
  17   5  22 1904.59 177.524   1
  17   5  23 2568.68 135.641   1
  27  -5  14 1132.03 184.683  -2
  17   5  24 1132.03 184.683   1
  17   5  25 8715.06 169.066   1
  29  -5  14 153.837 163.532  -2
  17   5  26 153.837 163.532   1
  17   5  27 178.392 142.493   1
  31  -5  13 350.895 242.142  -2
  17   5  27 350.895 242.142   1
  17   5  28 196.087 88.8507   1
 -33  -7  18-4.07946 222.228  -2
  17   7 -32-4.07946 222.228   1
  17   7 -31-35.6916 191.285   1
 -31  -7  18 836.455 288.258  -2
  17   7 -30 836.455 288.258   1
  17   7 -29 24.1923 230.485   1
 -29  -7  18 419.208 309.416  -2
  17   7 -28 419.208 309.416   1
  17   7 -27 147.137 251.490   1
 -17   7  26 309.303 127.064   1
 -27  -7  18 1484.65 351.235  -2
  17   7 -26 1484.65 351.235   1
  17   7 -25 1336.19 302.035   1
  17   7 -24 3788.96 302.500   1
 -23  -7  17 1179.69 374.160  -2
  17   7 -23 1179.69 374.160   1
  17   7 -22 1519.06 305.327   1
 -21  -7  17 974.251 368.683  -2
  17   7 -21 974.251 368.683   1
  17   7 -20 717.088 270.048   1
 -19  -7  17 337.022 357.738  -2
  17   7 -19 337.022 357.738   1
  17  -7 -18 752.758 193.877   1
 -17  -7  17 458.902 86.9956  -2
  17   7 -17 458.902 86.9956   1
  17  -7 -16 104.362 145.628   1
 -15  -7  17 1813.18 205.177  -2
  17   7 -15 1813.18 205.177   1
  17  -7 -14 4194.25 179.253   1
 -13   7  17 2698.26 207.691  -2
  17  -7 -13 2698.26 207.691   1
  17  -7 -12 659.818 146.024   1
  17   7 -11 76.7570 159.642   1
 -11   7  17-56.9867 336.243  -2
  17  -7 -11-56.9867 336.243   1
  17   7 -10 1508.26 258.016   1
  -9   7  16 2862.53 230.138  -2
  17  -7 -10 2862.53 230.138   1
  17   7  -9 422.748 133.192   1
  -7  -7  16 13472.5 233.944  -2
  17   7  -8 13472.5 233.944   1
  17  -7  -7 560.626 128.623   1
  -5  -7  16 6046.55 201.044  -2
  17   7  -6 6046.55 201.044   1
  17   7  -5 3880.60 141.865   1
  -3  -7  16 43.2768 68.6672  -2
  17   7  -4 43.2768 68.6672   1
  17   7  -3 1582.94 144.614   1
  -1  -7  16 1651.14 196.563  -2
  17   7  -2 1651.14 196.563   1
  17   7  -1 9928.76 167.188   1
   1  -7  16 4180.20 178.549  -2
  17   7   0 4180.20 178.549   1
  17   7   1 75.9540 115.791   1
  17   7   2 3283.19 133.327   1
   5  -7  15 3170.89 128.134  -2
  17   7   3 3170.89 128.134   1
  17  -7   4 2836.55 91.5220   1
   7  -7  15 1173.07 112.137  -2
  17   7   5 1173.07 112.137   1
  17   7   6 9142.88 101.335   1
   9  -7  15 5638.62 145.391  -2
  17   7   7 5638.62 145.391   1
  17   7   8 3522.42 105.051   1
  11   7  15 2180.20 132.398  -2
  17  -7   9 2180.20 132.398   1
  17  -7  10 90.8865 93.6104   1
  13  -7  15 508.456 141.728  -2
  17   7  11 508.456 141.728   1
  17   7  12 694.365 109.444   1
  15  -7  15 2950.22 131.731  -2
  17   7  13 2950.22 131.731   1
  17   7  14 858.509 123.712   1
  17  -7  14 1041.80 198.331  -2
  17   7  14 1041.80 198.331   1
  17   7  15 845.720 138.550   1
  19  -7  14 259.302 176.602  -2
  17   7  16 259.302 176.602   1
  17   7  17 2784.41 153.201   1
  21  -7  14 13535.0 246.154  -2
  17   7  18 13535.0 246.154   1
  17   7  19 9.87603 138.045   1
  23  -7  14 2278.34 190.772  -2
  17   7  20 2278.34 190.772   1
  17   7  21 45.2538 133.148   1
  25  -7  14 6253.23 203.649  -2
  17   7  22 6253.23 203.649   1
  17   7  23 113.605 122.914   1
  27  -7  14 1956.37 165.572  -2
  17   7  24 1956.37 165.572   1
  17   7  25 100.757 111.477   1
  29  -7  14 566.038 131.843  -2
  17   7  26 566.038 131.843   1
  17   7  27 215.212 105.667   1
 -17   9  28 340.813 113.930   1
 -17   9  27 1407.63 107.620   1
 -17   9  26 173.348 129.704   1
 -27  -9  18 175.401 265.439  -2
  17   9 -26 175.401 265.439   1
  17   9 -25 234.941 225.370   1
  17   9 -24 569.607 247.578   1
 -23  -9  17 470.654 326.540  -2
  17   9 -23 470.654 326.540   1
  17   9 -22 60.6374 260.780   1
 -21  -9  17 786.928 337.065  -2
  17   9 -21 786.928 337.065   1
  17   9 -20-19.5532 262.940   1
 -19  -9  17 1190.82 347.715  -2
  17   9 -19 1190.82 347.715   1
  17   9 -18 538.359 255.016   1
 -17  -9  17 115.971 99.9498  -2
  17   9 -17 115.971 99.9498   1
  17   9 -16 191.088 271.542   1
 -15  -9  17 5692.59 390.710  -2
  17   9 -15 5692.59 390.710   1
  17   9 -14 79.7867 270.766   1
 -13  -9  17 3970.32 360.122  -2
  17   9 -13 3970.32 360.122   1
  17   9 -12 2752.83 173.709   1
  17   9 -11 8414.80 242.166   1
 -11   9  17 11363.2 490.820  -2
  17  -9 -11 11363.2 490.820   1
  17   9 -10 763.947 267.949   1
  -9   9  16 1818.63 249.962  -2
  17  -9 -10 1818.63 249.962   1
  17   9  -9 188.060 174.943   1
  -7  -9  16 2697.10 246.913  -2
  17   9  -8 2697.10 246.913   1
  17   9  -7 1487.48 188.073   1
  -5  -9  16 16992.7 337.908  -2
  17   9  -6 16992.7 337.908   1
  17   9  -5 1905.53 182.884   1
  -3  -9  16 7143.21 283.788  -2
  17   9  -4 7143.21 283.788   1
  17   9  -3 130.569 168.311   1
  -1  -9  16 6667.15 263.988  -2
  17   9  -2 6667.15 263.988   1
  17   9  -1 494.736 139.877   1
   1  -9  16 2151.46 195.240  -2
  17   9   0 2151.46 195.240   1
  17   9   1 2157.29 145.091   1
  17   9   2 11115.7 193.963   1
   5  -9  15 5342.79 197.229  -2
  17   9   3 5342.79 197.229   1
  17   9   4 753.674 135.697   1
   7  -9  15 7880.28 207.165  -2
  17   9   5 7880.28 207.165   1
  17   9   6 353.510 137.446   1
   9  -9  15 517.684 187.156  -2
  17   9   7 517.684 187.156   1
  17   9   8 11494.1 201.842   1
  11  -9  15 11159.4 313.473  -2
  17   9   9 11159.4 313.473   1
  17   9  10 2285.57 123.807   1
  13  -9  15 5890.72 179.318  -2
  17   9  11 5890.72 179.318   1
  17   9  12 1069.97 167.739   1
  15  -9  15 660.544 215.115  -2
  17   9  13 660.544 215.115   1
  17  -9  14 1117.36 217.964  -2
  17   9  14 1117.36 217.964   1
  17   9  15 2093.02 175.424   1
  19  -9  14 5670.31 260.138  -2
  17   9  16 5670.31 260.138   1
  17   9  17 95.0402 122.050   1
  21  -9  14 4171.20 176.295  -2
  17   9  18 4171.20 176.295   1
  17   9  19 1880.53 125.292   1
  23  -9  14 1587.39 156.816  -2
  17   9  20 1587.39 156.816   1
  17   9  21 723.998 152.908   1
  25  -9  14 484.026 186.794  -2
  17   9  22 484.026 186.794   1
  17   9  23 72.8584 124.787   1
 -17  11  26 68.7736 101.856   1
 -17  11  25 288.607 114.906   1
  17  11  -7 3584.11 259.696   1
  -5 -11  16 607.832 300.095  -2
  17  11  -6 607.832 300.095   1
  17  11  -5 1105.88 229.248   1
  -3 -11  16 1034.29 299.371  -2
  17  11  -4 1034.29 299.371   1
  17  11  -3 10.2370 226.804   1
  -1 -11  16 2363.36 311.410  -2
  17  11  -2 2363.36 311.410   1
  17  11  -1 6598.78 268.135   1
   1 -11  16 11297.0 356.611  -2
  17  11   0 11297.0 356.611   1
  17  11   4 260.213 168.868   1
   7 -11  15 1892.54 228.192  -2
  17  11   5 1892.54 228.192   1
  17  11   6 3801.10 181.247   1
   9 -11  15 402.818 200.104  -2
  17  11   7 402.818 200.104   1
  17  11   8 1599.38 153.080   1
 -17  13  22 278.941 109.008   1
  17  13   2 2661.16 181.606   1
   5 -13  15 6291.83 225.955  -2
  17  13   3 6291.83 225.955   1
  17  13   4 2553.70 165.150   1
  17  15  -3 1284.88 135.249   1
  -1 -15  16 253.639 166.986  -2
  17  15  -2 253.639 166.986   1
  17  15  -1 857.915 125.677   1
  18   0 -34 370.218 203.666   1
  18   0 -32 207.850 252.506   1
  18   0 -30 153.781 275.951   1
  18   0 -28 9.82207 297.395   1
  18   0 -26 815.156 286.570   1
  18   0 -24 1527.21 283.553   1
 -22   0  18 5273.22 273.262  -2
  18   0 -22 5273.22 273.262   1
 -20   0  18 8625.96 283.200  -2
  18   0 -20 8625.96 283.200   1
 -18   0  18 5240.11 91.1845  -2
  18   0 -18 5240.11 91.1845   1
  16   0 -18 7467.12 197.488  -2
 -18   0  16 7467.12 197.488   1
 -14   0  18 11609.5 334.830  -2
  18   0 -14 11609.5 334.830   1
  18   0 -12 3408.78 232.754   1
  18   0 -10 54.4816 183.024   1
  18   0  -8 913.114 219.122   1
  18   0  -6 1515.08 222.392   1
  18   0  -4 24614.0 405.227   1
  18   0  -2 1535.01 211.482   1
  18   0   0 26906.9 395.463   1
   4   0  16 46544.0 504.468  -2
  18   0   2 46544.0 504.468   1
   6   0  16 10746.0 326.205  -2
  18   0   4 10746.0 326.205   1
  -8   0 -16 18505.7 339.102  -2
 -18   0  -6 18505.7 339.102   1
 -10   0 -16 16663.0 291.281  -2
 -18   0  -8 16663.0 291.281   1
 -12   0 -16 51382.9 259.209  -2
 -18   0 -10 51382.9 259.209   1
 -14   0 -16 30871.7 210.668  -2
 -18   0 -12 30871.7 210.668   1
 -18   0 -14 29221.2 184.076   1
 -18   0 -16 296.704 101.546   1
  18   0  18 21788.0 188.563   1
  18   0  20 119.290 117.905   1
  18   0  22 691.106 119.200   1
  18   0  24 981.249 116.378   1
  18   0  26 2251.07 164.318   1
  30   0  14 3643.45 325.682  -2
  18   0  26 3643.45 325.682   1
  32   0  14 1118.33 265.172  -2
  18   0  28 1118.33 265.172   1
  34   0  14 3695.09 230.182  -2
  18   0  30 3695.09 230.182   1
  18   2 -35-44.9323 183.056   1
  18  -2 -34 112.465 142.502   1
 -34   2  19 141.168 204.113  -2
  18  -2 -33 141.168 204.113   1
  18   2 -32 23.8487 172.112   1
 -32  -2  19 652.910 233.527  -2
  18   2 -31 652.910 233.527   1
  18   2 -30 16.2727 188.563   1
 -30   2  19 766.067 252.326  -2
  18  -2 -29 766.067 252.326   1
  18  -2 -28 120.535 200.337   1
 -28  -2  19 960.994 260.001  -2
  18   2 -27 960.994 260.001   1
  18  -2 -26-77.3219 194.033   1
  18  -2 -25 953.923 206.595   1
  18   2 -24 182.721 193.511   1
 -18  -2  23 5186.76 161.652   1
 -22   2  18 286.285 174.042  -2
  18  -2 -22 286.285 174.042   1
 -18   2  21 142.376 125.498   1
  20   2 -18 221.628 157.400  -2
 -18  -2  20 221.628 157.400   1
 -18   2  19 60.8524 133.510   1
  18  -2 -18 2409.91 149.864  -2
 -18   2  18 2409.91 149.864   1
 -18   2  17 702.405 86.7780   1
  16  -2 -18 1492.08 116.818  -2
 -18   2  16 1492.08 116.818   1
 -18   2  15 1486.72 101.309   1
  14  -2 -18 541.678 125.828  -2
 -18   2  14 541.678 125.828   1
  18   2 -13 185.560 96.5675   1
  18   2 -12 69.9805 113.268   1
  18  -2 -11 1523.59 130.777   1
 -18   2  10 6667.56 161.441   1
   8  -2 -17 12126.9 217.334  -2
 -18   2   9 12126.9 217.334   1
 -18   2   8 1673.91 132.895   1
  -6   2  17 16896.7 260.749  -2
  18  -2  -7 16896.7 260.749   1
 -18   2   6 1115.69 128.562   1
  -4  -2  17 30382.2 139.064  -2
  18   2  -5 30382.2 139.064   1
  18   2  -4 5438.67 199.837   1
  -2  -2  17 21982.8 246.580  -2
  18   2  -3 21982.8 246.580   1
  18   2  -2 6480.52 194.209   1
   0  -2  17 12793.1 260.895  -2
  18   2  -1 12793.1 260.895   1
 -18  -2   0 202.819 120.971   1
 -18  -2  -1 4665.85 151.205   1
  -4   2 -16 21860.6 243.908  -2
 -18  -2  -2 21860.6 243.908   1
 -18  -2  -3 13506.4 194.432   1
  -6   2 -16 9458.84 202.509  -2
 -18  -2  -4 9458.84 202.509   1
 -18  -2  -5 241.714 108.506   1
  -8   2 -16 6832.58 253.257  -2
 -18  -2  -6 6832.58 253.257   1
 -18  -2  -7 1536.14 76.7413   1
 -10   2 -16 699.700 102.119  -2
 -18  -2  -8 699.700 102.119   1
 -18   2  -9 2257.89 64.8336   1
 -12   2 -16 1477.26 82.7072  -2
 -18  -2 -10 1477.26 82.7072   1
  18   2  11 7519.65 79.6586   1
  14   2  16 2635.19 90.2935  -2
  18  -2  12 2635.19 90.2935   1
 -18  -2 -13 4510.10 98.1111   1
  16  -2  15 9007.53 170.528  -2
  18   2  13 9007.53 170.528   1
  18   2  14 1112.41 70.7877   1
  18  -2  15 5144.75 108.844  -2
  18   2  15 5144.75 108.844   1
  18   2  16 6534.28 95.1653   1
  20  -2  15 9730.07 132.536  -2
  18   2  17 9730.07 132.536   1
  18   2  18 1327.14 86.5227   1
  22  -2  15 5978.31 128.385  -2
  18   2  19 5978.31 128.385   1
  18  -2  20 6597.48 100.254   1
  24  -2  15 16753.0 160.987  -2
  18   2  21 16753.0 160.987   1
  18  -2  22 686.495 82.0260   1
  26  -2  15 842.140 104.794  -2
  18   2  23 842.140 104.794   1
  18  -2  24 31.3746 86.3202   1
  28  -2  15 1776.78 168.605  -2
  18   2  25 1776.78 168.605   1
  18   2  26 1038.33 163.452   1
  30  -2  14 1615.12 217.482  -2
  18   2  26 1615.12 217.482   1
  18   2  27 1019.08 114.775   1
  32   2  14 941.484 128.856  -2
  18  -2  28 941.484 128.856   1
  18  -2  29 1262.53 92.0271   1
  18   4 -35 10.3997 157.432   1
  18   4 -34-40.6803 172.713   1
 -34  -4  19 77.7444 274.849  -2
  18   4 -33 77.7444 274.849   1
  18   4 -32 362.192 236.347   1
 -32  -4  19 16.0337 131.812  -2
  18   4 -31 16.0337 131.812   1
  18   4 -30 97.4776 163.239   1
 -30  -4  19 261.575 226.566  -2
  18   4 -29 261.575 226.566   1
  18   4 -28 304.602 180.395   1
 -28  -4  19 265.006 232.478  -2
  18   4 -27 265.006 232.478   1
  18   4 -26 697.616 192.588   1
  18   4 -25 130.402 185.278   1
  18   4 -24 926.911 186.185   1
  18  -4 -23 206.759 181.368   1
 -22  -4  18 945.961 236.137  -2
  18   4 -22 945.961 236.137   1
 -18   4  21 283.382 151.064   1
 -20   4  18 1795.28 207.544  -2
  18  -4 -20 1795.28 207.544   1
  18  -4 -19 1264.36 153.317   1
 -18   4  18 544.888 66.0906  -2
  18  -4 -18 544.888 66.0906   1
  18   4 -17 291.301 110.823   1
 -16   4  18 4481.94 171.206  -2
  18  -4 -16 4481.94 171.206   1
 -18   4  15 981.782 110.517   1
  14  -4 -18 1156.13 141.289  -2
 -18   4  14 1156.13 141.289   1
 -18   4  13 148.358 106.261   1
  18   4 -12 10437.2 177.470   1
  12  -4 -18 16523.9 436.497  -2
 -18   4  12 16523.9 436.497   1
 -18   4  11 1353.32 157.072   1
 -10   4  17 1832.53 201.162  -2
  18  -4 -11 1832.53 201.162   1
  18  -4 -10 1925.04 113.273   1
   8  -4 -17 7602.06 167.071  -2
 -18   4   9 7602.06 167.071   1
 -18  -4   8 15840.9 207.037   1
   6   4 -17 9959.54 230.511  -2
 -18  -4   7 9959.54 230.511   1
  18  -4  -6 20639.8 226.087   1
  -4  -4  17 11627.6 243.195  -2
  18   4  -5 11627.6 243.195   1
  18  -4  -4 20974.8 219.876   1
   2   4 -17 16325.7 247.953  -2
 -18  -4   3 16325.7 247.953   1
 -18  -4   2 1765.83 175.425   1
   0   4 -17 2256.74 222.968  -2
 -18  -4   1 2256.74 222.968   1
 -18  -4   0 46055.4 408.720   1
 -18  -4  -1 2516.72 182.399   1
  -4   4 -16 34749.9 371.068  -2
 -18  -4  -2 34749.9 371.068   1
 -18  -4  -3 1815.05 173.568   1
  -6   4 -16 3044.89 217.764  -2
 -18  -4  -4 3044.89 217.764   1
  18   4   5 715.855 69.7731   1
   8  -4  16 3215.83 96.5366  -2
  18   4   6 3215.83 96.5366   1
 -18  -4  -7 4846.84 79.7041   1
 -10   4 -16 3966.10 113.329  -2
 -18  -4  -8 3966.10 113.329   1
 -18  -4  -9 2616.36 91.3956   1
  12  -4  16 8279.70 126.300  -2
  18   4  10 8279.70 126.300   1
  18   4  11 1084.80 77.4990   1
  14   4  16 14608.6 146.527  -2
  18  -4  12 14608.6 146.527   1
  18   4  13 243.836 146.029   1
  16  -4  15 1385.90 138.495  -2
  18   4  13 1385.90 138.495   1
  18   4  14 19.1719 84.9731   1
  18  -4  15 2382.03 125.805  -2
  18   4  15 2382.03 125.805   1
  18   4  16 5190.81 110.153   1
  20  -4  15 787.366 125.933  -2
  18   4  17 787.366 125.933   1
  18   4  18 12167.8 130.596   1
  22  -4  15 1792.79 134.342  -2
  18   4  19 1792.79 134.342   1
  18   4  20 1240.74 101.218   1
  24  -4  15 993.497 159.026  -2
  18   4  21 993.497 159.026   1
  18   4  22 143.198 115.044   1
  26  -4  15 857.235 170.490  -2
  18   4  23 857.235 170.490   1
  18   4  24 1425.38 128.775   1
  28  -4  15 2215.31 158.248  -2
  18   4  25 2215.31 158.248   1
  18   4  26 115.753 158.450   1
  30  -4  14 302.281 269.618  -2
  18   4  26 302.281 269.618   1
  18   4  27 106.537 111.290   1
  32  -4  14 210.306 128.966  -2
  18   4  28 210.306 128.966   1
  18   4  29 364.226 156.744   1
 -34  -6  19 830.635 225.561  -2
  18   6 -33 830.635 225.561   1
  18   6 -32 91.3775 196.282   1
 -32  -6  19 234.302 280.203  -2
  18   6 -31 234.302 280.203   1
  18   6 -30-12.9825 230.157   1
 -30  -6  19-48.2356 312.493  -2
  18   6 -29-48.2356 312.493   1
  18   6 -28-27.1916 265.343   1
 -28  -6  19 443.602 351.083  -2
  18   6 -27 443.602 351.083   1
  18   6 -26 1749.75 291.828   1
  18   6 -25 206.457 305.510   1
  18   6 -24 160.034 282.075   1
  18   6 -23 1061.25 292.960   1
 -22  -6  18 662.309 378.419  -2
  18   6 -22 662.309 378.419   1
  18   6 -21 202.791 268.646   1
 -20  -6  18 496.496 350.162  -2
  18   6 -20 496.496 350.162   1
  18   6 -19-35.6440 192.443   1
 -18   6  18 133.312 92.4098  -2
  18  -6 -18 133.312 92.4098   1
  18   6 -17 600.706 140.306   1
 -16  -6  18 4329.66 211.757  -2
  18   6 -16 4329.66 211.757   1
  18  -6 -15 7707.42 185.467   1
 -14  -6  18 5832.46 211.621  -2
  18   6 -14 5832.46 211.621   1
  18  -6 -13 3490.57 162.259   1
  18   6 -12 1686.99 171.149   1
 -12   6  18 4662.41 367.403  -2
  18  -6 -12 4662.41 367.403   1
  18   6 -11 6673.69 312.156   1
 -10   6  17 11247.9 268.538  -2
  18  -6 -11 11247.9 268.538   1
  18   6 -10 1674.46 149.430   1
  -8  -6  17 2907.12 183.671  -2
  18   6  -9 2907.12 183.671   1
  18   6  -8 543.349 129.743   1
  -6   6  17 37.7857 157.464  -2
  18  -6  -7 37.7857 157.464   1
  18   6  -6 1437.58 127.222   1
  -4  -6  17 12223.5 227.352  -2
  18   6  -5 12223.5 227.352   1
  18   6  -4 1406.07 117.982   1
  -2  -6  17 6145.25 224.847  -2
  18   6  -3 6145.25 224.847   1
  18   6  -2 188.537 139.512   1
   0  -6  17 12079.2 241.318  -2
  18   6  -1 12079.2 241.318   1
  18   6   0 15551.2 197.978   1
   2  -6  16 15175.9 297.733  -2
  18   6   0 15175.9 297.733   1
  18   6   1 888.470 93.4244   1
   4  -6  16 12639.5 154.508  -2
  18   6   2 12639.5 154.508   1
  18   6   3 4126.84 97.1726   1
   6  -6  16 19602.0 151.598  -2
  18   6   4 19602.0 151.598   1
  18   6   5 546.621 73.3991   1
   8  -6  16 16877.1 153.578  -2
  18   6   6 16877.1 153.578   1
  18   6   7 686.311 81.1449   1
  10  -6  16 10130.0 164.015  -2
  18   6   8 10130.0 164.015   1
  18   6   9 294.290 89.2180   1
  12   6  16 3058.70 150.927  -2
  18  -6  10 3058.70 150.927   1
  18   6  11 774.320 108.077   1
  14   6  16 11859.8 186.867  -2
  18  -6  12 11859.8 186.867   1
  18   6  13 1703.47 130.476   1
  16   6  15 2350.75 200.871  -2
  18  -6  13 2350.75 200.871   1
  18   6  14 11215.5 132.707   1
  18  -6  15 1219.71 129.491  -2
  18   6  15 1219.71 129.491   1
  18  -6  16 183.372 99.5812   1
  20  -6  15 8660.98 196.138  -2
  18   6  17 8660.98 196.138   1
  18   6  18 763.919 128.584   1
  22  -6  15 8710.40 232.770  -2
  18   6  19 8710.40 232.770   1
  18   6  20 863.385 142.953   1
  24  -6  15 6500.16 215.916  -2
  18   6  21 6500.16 215.916   1
  18   6  22 212.608 134.033   1
  26  -6  15 1341.12 173.007  -2
  18   6  23 1341.12 173.007   1
  18   6  24 165.347 121.373   1
  28  -6  15 192.168 151.961  -2
  18   6  25 192.168 151.961   1
  18   6  26 208.719 131.840   1
  30  -6  14 1228.55 220.315  -2
  18   6  26 1228.55 220.315   1
  18   6  27 179.322 92.6240   1
  18   8 -30 151.120 169.300   1
 -30  -8  19 1116.63 251.915  -2
  18   8 -29 1116.63 251.915   1
  18   8 -28 13.5163 210.196   1
 -28  -8  19 424.714 285.777  -2
  18   8 -27 424.714 285.777   1
 -18   8  26 77.7163 112.160   1
  18   8 -25-17.7931 245.520   1
  18   8 -24-28.9128 269.604   1
  18   8 -23 575.874 257.781   1
 -22  -8  18 1716.43 374.018  -2
  18   8 -22 1716.43 374.018   1
  18   8 -21 71.2442 270.323   1
 -20  -8  18 1802.16 346.739  -2
  18   8 -20 1802.16 346.739   1
  18   8 -19 471.717 275.215   1
 -18  -8  18 165.589 324.242  -2
  18   8 -18 165.589 324.242   1
  18   8 -17 268.376 278.656   1
 -16  -8  18 6578.35 395.149  -2
  18   8 -16 6578.35 395.149   1
  18  -8 -15 1051.81 158.688   1
 -14  -8  18 1037.27 201.801  -2
  18   8 -14 1037.27 201.801   1
  18  -8 -13 3490.22 178.210   1
  18   8 -12 2807.30 196.889   1
 -12   8  18 3591.89 407.149  -2
  18  -8 -12 3591.89 407.149   1
  18   8 -11 1022.44 265.974   1
 -10   8  17 1449.69 251.047  -2
  18  -8 -11 1449.69 251.047   1
  18   8 -10 951.958 152.658   1
  -8  -8  17 6969.63 228.741  -2
  18   8  -9 6969.63 228.741   1
  18   8  -8 947.594 147.316   1
  -6  -8  17 7572.42 235.186  -2
  18   8  -7 7572.42 235.186   1
  18   8  -6 1315.33 176.228   1
  -4  -8  17 12920.4 113.146  -2
  18   8  -5 12920.4 113.146   1
  18   8  -4 4701.16 191.807   1
  -2  -8  17 8145.64 269.931  -2
  18   8  -3 8145.64 269.931   1
  18   8  -2 251.869 163.395   1
   0  -8  17 2447.63 222.497  -2
  18   8  -1 2447.63 222.497   1
  18   8   0 78.7075 128.751   1
  18   8   1 294.773 132.010   1
   4  -8  16 3850.85 182.950  -2
  18   8   2 3850.85 182.950   1
  18   8   3 702.513 127.043   1
   6  -8  16 8792.90 221.844  -2
  18   8   4 8792.90 221.844   1
  18   8   5 456.560 84.4581   1
   8  -8  16 6759.41 168.194  -2
  18   8   6 6759.41 168.194   1
  18   8   7 268.328 101.658   1
  10  -8  16 4405.22 162.435  -2
  18   8   8 4405.22 162.435   1
  18   8   9 2467.80 127.351   1
  12  -8  16 4225.61 180.947  -2
  18   8  10 4225.61 180.947   1
  18   8  11 8201.52 157.632   1
  14  -8  16 3153.43 176.424  -2
  18   8  12 3153.43 176.424   1
  18   8  13 6137.46 194.461   1
  16  -8  15 6194.93 272.293  -2
  18   8  13 6194.93 272.293   1
  18   8  14 12050.2 253.450   1
  18  -8  15 7339.56 287.464  -2
  18   8  15 7339.56 287.464   1
  18   8  16 12024.8 176.854   1
  20  -8  15 5413.91 196.432  -2
  18   8  17 5413.91 196.432   1
  18   8  18 104.360 128.167   1
  22  -8  15 3288.57 179.366  -2
  18   8  19 3288.57 179.366   1
  18   8  20 686.758 125.854   1
  24  -8  15 462.002 154.764  -2
  18   8  21 462.002 154.764   1
  18   8  22 1112.56 120.488   1
  26  -8  15 1641.67 146.077  -2
  18   8  23 1641.67 146.077   1
  18   8  24 160.617 126.061   1
  28  -8  15 1810.02 155.856  -2
  18   8  25 1810.02 155.856   1
 -18  10  26 1278.03 114.500   1
 -18  10  25 735.477 125.162   1
  18  10 -23 242.376 210.460   1
 -22 -10  18 250.130 122.817  -2
  18  10 -22 250.130 122.817   1
  18  10 -21-46.1289 232.426   1
 -20 -10  18 1676.87 334.611  -2
  18  10 -20 1676.87 334.611   1
  18  10 -19-137.069 244.283   1
 -18 -10  18 78.2650 326.362  -2
  18  10 -18 78.2650 326.362   1
  18  10 -17 668.868 245.586   1
 -16 -10  18 3887.63 354.714  -2
  18  10 -16 3887.63 354.714   1
  18  10 -15 974.858 258.816   1
 -14 -10  18 1178.36 336.217  -2
  18  10 -14 1178.36 336.217   1
  18  10 -13 57.8816 256.815   1
  18  10 -12 329.594 266.909   1
 -10 -10  17 6547.63 366.467  -2
  18  10 -11 6547.63 366.467   1
  18  10 -10 21301.4 381.101   1
  -8 -10  17 6515.89 380.052  -2
  18  10  -9 6515.89 380.052   1
  18  10  -8 4010.11 279.325   1
  -6 -10  17 1090.10 334.373  -2
  18  10  -7 1090.10 334.373   1
  18  10  -6 1724.94 270.531   1
  -4 -10  17 13686.2 434.328  -2
  18  10  -5 13686.2 434.328   1
  18  10  -4 4336.96 214.315   1
  -2 -10  17 8928.45 386.421  -2
  18  10  -3 8928.45 386.421   1
  18  10  -2 1700.22 187.144   1
   0 -10  17 3476.62 329.140  -2
  18  10  -1 3476.62 329.140   1
  18  10   0 1876.96 244.107   1
  18  10   1 1446.20 236.400   1
   4 -10  16 2779.05 318.885  -2
  18  10   2 2779.05 318.885   1
   6 -10  16 9948.78 297.906  -2
  18  10   4 9948.78 297.906   1
  18  10   5 4777.32 201.487   1
   8 -10  16 2194.38 242.221  -2
  18  10   6 2194.38 242.221   1
  18  10   7 2863.89 179.819   1
  10 -10  16 1589.21 227.270  -2
  18  10   8 1589.21 227.270   1
  18  10   9 1065.77 168.350   1
  12 -10  16 7576.73 252.176  -2
  18  10  10 7576.73 252.176   1
 -18  12  24 87.1421 98.2394   1
 -18  12  23 420.170 114.315   1
   4 -12  16 9183.37 273.630  -2
  18  12   2 9183.37 273.630   1
  18  12   3 4954.67 205.030   1
   6 -12  16 5209.82 246.062  -2
  18  12   4 5209.82 246.062   1
  18  12   5 1198.02 160.158   1
   8 -12  16 1056.23 204.691  -2
  18  12   6 1056.23 204.691   1
  18  12   7 2353.79 156.638   1
   0 -14  17 227.663 194.904  -2
  18  14  -1 227.663 194.904   1
  18  14   0 2972.40 159.759   1
  18  14   1 742.291 145.555   1
   4 -14  16 1408.25 178.982  -2
  18  14   2 1408.25 178.982   1
  19   1 -35 97.6935 119.858   1
 -35   1  20 34.8639 188.146  -2
  19  -1 -34 34.8639 188.146   1
  19   1 -33 194.019 151.842   1
 -33  -1  20-22.0986 214.608  -2
  19   1 -32-22.0986 214.608   1
  19  -1 -31 65.5326 181.573   1
 -31   1  20 58.6349 243.354  -2
  19  -1 -30 58.6349 243.354   1
  19  -1 -29 293.887 197.894   1
 -29   1  20 211.534 257.630  -2
  19  -1 -28 211.534 257.630   1
  19   1 -27 277.176 211.427   1
  19  -1 -26 2524.31 214.181   1
  19  -1 -25-45.5304 203.699   1
  19   1 -24 250.595 192.764   1
 -23  -1  19 1593.35 267.176  -2
  19   1 -23 1593.35 267.176   1
 -19  -1  22 1170.68 138.276   1
 -21  -1  19 1176.48 175.376  -2
  19   1 -21 1176.48 175.376   1
 -19   1  20 352.122 124.195   1
  19  -1 -19 3618.99 102.719  -2
 -19   1  19 3618.99 102.719   1
 -19  -1  18 2707.53 97.7112   1
 -17   1  19 4307.87 139.699  -2
  19  -1 -17 4307.87 139.699   1
  19   1 -16 1410.45 96.8844   1
 -15  -1  19 7073.00 139.773  -2
  19   1 -15 7073.00 139.773   1
  19  -1 -14 2431.74 113.542   1
 -19   1  13 8092.46 168.963   1
 -13  -1  19 11371.9 312.590  -2
  19   1 -13 11371.9 312.590   1
  19  -1 -12 1745.71 156.927   1
  19   1 -11 1208.42 153.981   1
  -9   1  18 7348.90 245.478  -2
  19  -1 -10 7348.90 245.478   1
  19   1  -9 11840.7 238.940   1
  -7   1  18 2498.65 236.687  -2
  19  -1  -8 2498.65 236.687   1
  19  -1  -7 11300.7 231.554   1
  -5   1  18 18521.2 356.216  -2
  19  -1  -6 18521.2 356.216   1
  19  -1  -5-61.3291 148.568   1
  -3   1  18 3597.18 228.634  -2
  19  -1  -4 3597.18 228.634   1
  19  -1  -3 137.552 142.958   1
  -1   1  18 3579.10 213.844  -2
  19  -1  -2 3579.10 213.844   1
  19   1  -1 1551.10 153.193   1
  19  -1   0 95.1285 142.804   1
   3  -1  17 3691.61 203.854  -2
  19   1   1 3691.61 203.854   1
  19   1   2 4750.78 172.972   1
  -5   1 -17 2219.72 171.529  -2
 -19  -1  -3 2219.72 171.529   1
 -19  -1  -4 9943.42 178.074   1
  -7   1 -17 15800.0 253.383  -2
 -19  -1  -5 15800.0 253.383   1
  19   1   6 1870.53 76.0598   1
  -9   1 -17 57944.3 161.089  -2
 -19  -1  -7 57944.3 161.089   1
  19  -1   8 3966.63 74.9573   1
 -11   1 -17 11919.6 115.310  -2
 -19  -1  -9 11919.6 115.310   1
 -19  -1 -10 14127.5 96.3683   1
  13  -1  17 8125.77 107.024  -2
  19   1  11 8125.77 107.024   1
 -19  -1 -12 1994.99 76.5189   1
  15   1  16 2073.11 296.581  -2
  19  -1  12 2073.11 296.581   1
  19   1  13 691.815 72.0958   1
  17  -1  16 3426.65 103.714  -2
  19   1  14 3426.65 103.714   1
 -19  -1 -15 4693.85 88.5279   1
  19  -1  16 1790.18 109.173  -2
  19   1  16 1790.18 109.173   1
  19  -1  17 154.349 82.6165   1
  21   1  16 4099.55 123.678  -2
  19  -1  18 4099.55 123.678   1
  19  -1  19 156.370 84.5696   1
  23   1  16 785.521 113.011  -2
  19  -1  20 785.521 113.011   1
  19  -1  21 559.348 83.6944   1
  25  -1  16 3312.67 118.290  -2
  19   1  22 3312.67 118.290   1
  19  -1  23 3727.75 88.6747   1
  27  -1  16 4489.04 111.528  -2
  19   1  24 4489.04 111.528   1
  19  -1  25 1995.27 94.7626   1
  29  -1  15 4234.55 234.878  -2
  19   1  25 4234.55 234.878   1
  19   1  26 4821.00 128.578   1
  31  -1  15 323.289 131.035  -2
  19   1  27 323.289 131.035   1
  19  -1  28 793.034 91.4933   1
  33  -1  15 3379.89 171.367  -2
  19   1  29 3379.89 171.367   1
  19   3 -35-31.3691 156.975   1
 -35  -3  20 272.478 243.968  -2
  19   3 -34 272.478 243.968   1
  19   3 -33 50.5677 216.553   1
 -33   3  20 534.964 202.831  -2
  19  -3 -32 534.964 202.831   1
  19   3 -31 43.6645 162.096   1
 -31  -3  20 183.202 222.723  -2
  19   3 -30 183.202 222.723   1
  19  -3 -29 21.5377 180.929   1
 -29  -3  20 1567.23 248.254  -2
  19   3 -28 1567.23 248.254   1
  19   3 -27 63.8453 205.370   1
  19  -3 -26 1803.37 202.078   1
  19   3 -25 56.5638 185.649   1
  19   3 -24 165.984 187.897   1
 -23  -3  19 1923.90 248.195  -2
  19   3 -23 1923.90 248.195   1
  19   3 -22 221.072 145.477   1
  21  -3 -19 851.696 191.434  -2
 -19   3  21 851.696 191.434   1
  19   3 -20 235.757 135.766   1
 -19   3  19 56.7720 173.206  -2
  19  -3 -19 56.7720 173.206   1
 -19   3  18 2271.46 113.298   1
 -17  -3  19 1049.67 166.232  -2
  19   3 -17 1049.67 166.232   1
 -19   3  16 952.426 122.628   1
 -15  -3  19 2390.47 167.214  -2
  19   3 -15 2390.47 167.214   1
 -19   3  14 2734.85 133.773   1
  19   3 -13 413.045 101.708   1
 -19   3  12 6924.48 167.138   1
 -11  -3  18 7289.66 307.918  -2
  19   3 -12 7289.66 307.918   1
 -19   3  11 7767.26 141.927   1
   9  -3 -18 20062.6 214.089  -2
 -19   3  10 20062.6 214.089   1
 -19   3   9 1625.60 112.902   1
  -7  -3  18 10243.4 244.077  -2
  19   3  -8 10243.4 244.077   1
  19  -3  -7 8861.30 158.388   1
   5   3 -18 41328.0 339.081  -2
 -19  -3   6 41328.0 339.081   1
  19  -3  -5 2805.72 116.896   1
  -3   3  18 19560.0 233.028  -2
  19  -3  -4 19560.0 233.028   1
  19  -3  -3 258.180 130.817   1
   1   3 -18 1288.63 174.969  -2
 -19  -3   2 1288.63 174.969   1
 -19  -3   1 975.086 133.219   1
 -19  -3   0 5064.17 160.771   1
  -3   3 -17 9760.85 208.452  -2
 -19  -3  -1 9760.85 208.452   1
 -19  -3  -2 3772.99 182.512   1
  -5   3 -17 11737.9 282.924  -2
 -19  -3  -3 11737.9 282.924   1
 -19  -3  -4 10698.6 106.565   1
   7  -3  17 23110.3 149.202  -2
  19   3   5 23110.3 149.202   1
 -19  -3  -6 5250.89 81.3715   1
  -9   3 -17 8894.09 119.887  -2
 -19  -3  -7 8894.09 119.887   1
  19  -3   8 1495.24 77.9679   1
  11  -3  17 14923.8 123.730  -2
  19   3   9 14923.8 123.730   1
  19   3  10 6320.14 79.4667   1
  13  -3  17 3626.90 95.4191  -2
  19   3  11 3626.90 95.4191   1
 -19  -3 -12 2124.58 111.809   1
  15  -3  16 2718.69 115.744  -2
  19   3  12 2718.69 115.744   1
  19   3  13 1478.39 76.2700   1
  17  -3  16 669.347 95.2678  -2
  19   3  14 669.347 95.2678   1
  19   3  15 1203.83 77.7629   1
  19  -3  16 1782.13 107.090  -2
  19   3  16 1782.13 107.090   1
  19   3  17 2076.97 86.2268   1
  21  -3  16 85.2531 75.2499  -2
  19   3  18 85.2531 75.2499   1
  19   3  19 1494.52 104.339   1
  23  -3  16 1231.90 134.408  -2
  19   3  20 1231.90 134.408   1
  19   3  21 3174.70 105.344   1
  25  -3  16 1295.19 128.353  -2
  19   3  22 1295.19 128.353   1
  19   3  23 607.558 109.231   1
  27   3  16 717.578 161.557  -2
  19  -3  24 717.578 161.557   1
  19   3  25 465.788 166.532   1
  29  -3  15 631.870 218.427  -2
  19   3  25 631.870 218.427   1
  19  -3  26 3135.86 122.020   1
  31  -3  15 96.5547 145.562  -2
  19   3  27 96.5547 145.562   1
  19   3  28 257.138 100.457   1
 -35  -5  20 337.920 202.871  -2
  19   5 -34 337.920 202.871   1
  19   5 -33 104.893 175.720   1
 -33  -5  20 253.236 267.704  -2
  19   5 -32 253.236 267.704   1
  19   5 -31 247.357 236.577   1
 -31  -5  20 484.731 312.583  -2
  19   5 -30 484.731 312.583   1
  19   5 -29 1198.45 275.293   1
 -29  -5  20 287.816 357.819  -2
  19   5 -28 287.816 357.819   1
  19   5 -27 233.388 286.330   1
  19   5 -26 160.737 279.319   1
  19   5 -25-12.3423 311.163   1
  19   5 -24 2019.56 316.023   1
 -23  -5  19 2179.18 407.875  -2
  19   5 -23 2179.18 407.875   1
  19   5 -22 2858.15 307.371   1
 -21  -5  19 10759.7 444.257  -2
  19   5 -21 10759.7 444.257   1
  19  -5 -20 1280.13 176.539   1
 -19   5  19 2403.73 220.240  -2
  19  -5 -19 2403.73 220.240   1
  19   5 -18 2745.27 146.535   1
  17  -5 -19 15594.8 239.934  -2
 -19   5  17 15594.8 239.934   1
  19   5 -16 290.361 119.505   1
 -15  -5  19 4503.22 173.760  -2
  19   5 -15 4503.22 173.760   1
  19   5 -14 1028.63 140.202   1
  19  -5 -13 213.119 126.301   1
  19   5 -12 486.037 206.415   1
 -11   5  18 845.323 210.894  -2
  19  -5 -12 845.323 210.894   1
  19  -5 -11 2412.18 141.939   1
  -9   5  18 2816.15 177.158  -2
  19  -5 -10 2816.15 177.158   1
  19   5  -9 147.399 119.379   1
  -7  -5  18 3448.30 181.264  -2
  19   5  -8 3448.30 181.264   1
 -19  -5   7 8571.18 146.896   1
   5   5 -18 4281.59 165.072  -2
 -19  -5   6 4281.59 165.072   1
 -19  -5   5 2584.80 116.736   1
   3   5 -18 2668.98 180.053  -2
 -19  -5   4 2668.98 180.053   1
 -19  -5   3 635.696 130.115   1
  -1  -5  18 7827.30 198.816  -2
  19   5  -2 7827.30 198.816   1
 -19  -5   1 380.083 173.237   1
   1  -5  17 6167.45 267.120  -2
  19   5  -1 6167.45 267.120   1
 -19  -5   0 3861.13 105.485   1
  -3   5 -17 6800.38 140.980  -2
 -19  -5  -1 6800.38 140.980   1
 -19  -5  -2 51.7927 92.5026   1
   5  -5  17 3066.87 106.952  -2
  19   5   3 3066.87 106.952   1
  19   5   4 696.412 76.1734   1
  -7   5 -17 15865.9 151.596  -2
 -19  -5  -5 15865.9 151.596   1
 -19  -5  -6 2749.49 83.5816   1
   9  -5  17 19396.1 186.082  -2
  19   5   7 19396.1 186.082   1
  19   5   8 694.797 96.2782   1
  11  -5  17 11438.2 170.547  -2
  19   5   9 11438.2 170.547   1
  19  -5  10 3919.73 112.690   1
  19   5  11 3606.96 196.560   1
  13  -5  17 15525.0 182.925  -2
  19   5  11 15525.0 182.925   1
  19   5  12 25.3655 113.088   1
  15   5  16 1413.30 178.505  -2
  19  -5  12 1413.30 178.505   1
  19  -5  13 28.9969 87.8569   1
  17   5  16 771.029 124.263  -2
  19  -5  14 771.029 124.263   1
  19   5  15 877.699 95.5669   1
  19   5  16 1771.82 129.974  -2
  19  -5  16 1771.82 129.974   1
  19   5  17 1100.12 101.491   1
  21   5  16 1229.42 131.237  -2
  19  -5  18 1229.42 131.237   1
  19   5  19 21.0793 91.9221   1
  23  -5  16 641.892 151.090  -2
  19   5  20 641.892 151.090   1
  19  -5  21 2205.43 133.398   1
  25  -5  16 1462.34 185.641  -2
  19   5  22 1462.34 185.641   1
  19   5  23 2569.50 141.735   1
  27  -5  16 1072.89 167.635  -2
  19   5  24 1072.89 167.635   1
  19   5  25 704.282 156.669   1
  29  -5  15 2027.05 259.487  -2
  19   5  25 2027.05 259.487   1
  19   5  26 7.14829 108.244   1
  31  -5  15 1106.65 125.558  -2
  19   5  27 1106.65 125.558   1
  19   5  28 92.0400 95.2818   1
  19   7 -31 3.36440 176.752   1
 -31  -7  20 361.232 251.391  -2
  19   7 -30 361.232 251.391   1
  19   7 -29 52.3629 217.698   1
 -29  -7  20 209.782 290.835  -2
  19   7 -28 209.782 290.835   1
  19   7 -27 420.902 261.355   1
  19   7 -26 1237.74 265.584   1
  19   7 -25 69.2728 276.692   1
  19   7 -24 304.520 285.031   1
 -23  -7  19 2325.63 391.843  -2
  19   7 -23 2325.63 391.843   1
  19   7 -22 946.162 300.467   1
 -21  -7  19 1445.04 394.510  -2
  19   7 -21 1445.04 394.510   1
  19   7 -20 1209.62 282.604   1
 -19  -7  19 501.945 121.878  -2
  19   7 -19 501.945 121.878   1
  19   7 -18 1567.47 280.937   1
 -17  -7  19 581.107 356.568  -2
  19   7 -17 581.107 356.568   1
  19   7 -16 760.805 159.061   1
 -15   7  19 439.671 201.416  -2
  19  -7 -15 439.671 201.416   1
  19  -7 -14 190.852 149.228   1
  19   7 -13 393.686 150.307   1
  19   7 -12 2042.48 289.934   1
 -11   7  18 3888.71 275.671  -2
  19  -7 -12 3888.71 275.671   1
  19  -7 -11 3687.85 176.781   1
  -9  -7  18 26303.8 304.514  -2
  19   7 -10 26303.8 304.514   1
  19   7  -9 1808.84 152.991   1
  -7  -7  18 2071.81 193.669  -2
  19   7  -8 2071.81 193.669   1
  19   7  -7 913.142 136.419   1
  -5  -7  18 9836.63 101.495  -2
  19   7  -6 9836.63 101.495   1
  19   7  -5 3056.83 176.152   1
  -3  -7  18 1164.09 211.175  -2
  19   7  -4 1164.09 211.175   1
  19   7  -3 789.455 158.981   1
  -1  -7  18 583.361 204.260  -2
  19   7  -2 583.361 204.260   1
  19   7  -1 560.976 236.050   1
   1  -7  17 4601.88 280.073  -2
  19   7  -1 4601.88 280.073   1
  19   7   0 281.238 114.272   1
   3  -7  17 1517.28 145.331  -2
  19   7   1 1517.28 145.331   1
  19   7   2 500.138 106.698   1
   5  -7  17 10164.8 151.318  -2
  19   7   3 10164.8 151.318   1
  19   7   4 8176.48 104.867   1
   7   7  17 278.830 64.0115  -2
  19  -7   5 278.830 64.0115   1
  19   7   6 6157.15 106.079   1
   9  -7  17 1724.69 71.2145  -2
  19   7   7 1724.69 71.2145   1
  19   7   8 2283.22 105.781   1
  11   7  17 2254.22 154.294  -2
  19  -7   9 2254.22 154.294   1
  19   7  10 6413.42 135.798   1
  13  -7  17 2334.48 156.381  -2
  19   7  11 2334.48 156.381   1
  19   7  12 611.848 187.098   1
  15  -7  16 482.745 193.503  -2
  19   7  12 482.745 193.503   1
  19   7  13 1364.57 122.179   1
  17  -7  16 127.442 97.5288  -2
  19   7  14 127.442 97.5288   1
  19   7  15 1107.12 106.387   1
  19  -7  16 13511.5 235.677  -2
  19   7  16 13511.5 235.677   1
  19   7  17 23.7939 132.229   1
  21  -7  16 641.062 175.110  -2
  19   7  18 641.062 175.110   1
  19   7  19 47.0784 127.422   1
  23  -7  16 197.888 160.735  -2
  19   7  20 197.888 160.735   1
  19   7  21 381.610 124.662   1
  25  -7  16 1426.35 160.302  -2
  19   7  22 1426.35 160.302   1
  19   7  23 90.9213 111.504   1
  27  -7  16 1953.70 142.404  -2
  19   7  24 1953.70 142.404   1
  19   7  25 175.851 121.580   1
  29  -7  15 207.047 192.171  -2
  19   7  25 207.047 192.171   1
  19   7  26 3095.57 118.409   1
  19   9 -27 22.5074 184.183   1
 -19   9  26 96.6625 96.7530   1
 -19   9  25 531.555 106.311   1
  19   9 -24 922.256 238.132   1
 -23  -9  19 255.750 315.051  -2
  19   9 -23 255.750 315.051   1
  19   9 -22 36.7113 243.108   1
 -21  -9  19-34.4050 337.013  -2
  19   9 -21-34.4050 337.013   1
  19   9 -20 271.701 261.352   1
 -19  -9  19 4003.03 358.125  -2
  19   9 -19 4003.03 358.125   1
  19   9 -18 59.6019 264.157   1
 -17  -9  19 1058.80 333.920  -2
  19   9 -17 1058.80 333.920   1
  19   9 -16 350.455 273.698   1
 -15  -9  19 8786.36 392.635  -2
  19   9 -15 8786.36 392.635   1
  19   9 -14 257.491 290.536   1
  19   9 -13 5208.48 309.298   1
 -11  -9  18 349.476 330.491  -2
  19   9 -12 349.476 330.491   1
  19   9 -11 875.385 274.452   1
  -9  -9  18 787.991 247.453  -2
  19   9 -10 787.991 247.453   1
  19   9  -9 2622.38 207.272   1
  -7  -9  18 1414.63 261.046  -2
  19   9  -8 1414.63 261.046   1
  19   9  -7 2081.00 199.033   1
  -5  -9  18 1901.38 88.8941  -2
  19   9  -6 1901.38 88.8941   1
  19   9  -5 770.768 184.403   1
  -3  -9  18 1251.57 242.646  -2
  19   9  -4 1251.57 242.646   1
  19   9  -3 359.265 174.438   1
  -1  -9  18 3269.50 245.315  -2
  19   9  -2 3269.50 245.315   1
  19   9  -1 1755.69 186.037   1
  19   9   0 7817.64 214.709   1
   3  -9  17 3088.89 238.454  -2
  19   9   1 3088.89 238.454   1
  19   9   2 79.1591 166.361   1
   5  -9  17 985.450 190.392  -2
  19   9   3 985.450 190.392   1
  19   9   4 1110.08 127.181   1
   7  -9  17 625.277 240.610  -2
  19   9   5 625.277 240.610   1
  19   9   6 377.529 180.139   1
   9  -9  17 3367.80 263.553  -2
  19   9   7 3367.80 263.553   1
  19   9   8 4254.21 137.932   1
  11  -9  17 2836.70 170.247  -2
  19   9   9 2836.70 170.247   1
  19   9  10 643.690 120.811   1
  13  -9  17 1563.36 155.737  -2
  19   9  11 1563.36 155.737   1
  19   9  12 1554.76 156.672   1
  15  -9  16 2248.87 225.597  -2
  19   9  12 2248.87 225.597   1
  19   9  13 7760.69 206.524   1
  17  -9  16 5704.24 253.172  -2
  19   9  14 5704.24 253.172   1
  19   9  15 881.208 162.635   1
  19  -9  16 2271.55 222.943  -2
  19   9  16 2271.55 222.943   1
  19   9  17-2.45550 154.627   1
  21  -9  16 218.285 197.588  -2
  19   9  18 218.285 197.588   1
  19   9  19 953.584 156.804   1
  23  -9  16 570.087 187.253  -2
  19   9  20 570.087 187.253   1
  19   9  21 113.721 130.732   1
  25  -9  16 2396.69 175.487  -2
  19   9  22 2396.69 175.487   1
 -19  11  25 49.1334 98.5111   1
 -19  11  24 267.602 111.857   1
  19  11 -16 355.391 236.908   1
 -15 -11  19 630.022 308.904  -2
  19  11 -15 630.022 308.904   1
  19  11 -14 99.3982 245.438   1
  19  11 -13 526.647 245.651   1
 -11 -11  18 3184.61 347.205  -2
  19  11 -12 3184.61 347.205   1
  19  11 -11 1109.64 249.811   1
  -9 -11  18 1242.23 334.702  -2
  19  11 -10 1242.23 334.702   1
  19  11  -9-0.14473 237.632   1
  -7 -11  18 554.548 327.084  -2
  19  11  -8 554.548 327.084   1
  19  11  -7 78.2848 233.689   1
  -5 -11  18 687.496 315.486  -2
  19  11  -6 687.496 315.486   1
  19  11  -5 62.3973 247.377   1
  -3 -11  18 1411.96 331.563  -2
  19  11  -4 1411.96 331.563   1
  19  11  -3 4156.11 272.229   1
  -1 -11  18 6259.98 355.652  -2
  19  11  -2 6259.98 355.652   1
  19  11  -1 196.960 235.702   1
  19  11   0 5775.14 260.400   1
   5 -11  17 15202.1 325.055  -2
  19  11   3 15202.1 325.055   1
  19  11   4 2848.64 196.787   1
   7 -11  17 738.173 227.763  -2
  19  11   5 738.173 227.763   1
  19  11   6 31.8490 151.312   1
   9 -11  17 662.936 208.784  -2
  19  11   7 662.936 208.784   1
  19  11   8 9.76689 149.290   1
  11 -11  17 3416.69 211.931  -2
  19  11   9 3416.69 211.931   1
  19  13   0 2340.82 174.189   1
   3 -13  17 4414.68 234.667  -2
  19  13   1 4414.68 234.667   1
  19  13   2 2996.45 169.528   1
   5 -13  17 22.1406 199.787  -2
  19  13   3 22.1406 199.787   1
  19  13   4 1059.15 149.571   1
   7 -13  17 1242.71 190.468  -2
  19  13   5 1242.71 190.468   1
  -5 -15  18-22.1899 151.192  -2
  19  15  -6-22.1899 151.192   1
  19  15  -5 1195.69 124.636   1
  -3 -15  18 414.614 151.876  -2
  19  15  -4 414.614 151.876   1
  19  15  -3-3.99091 115.475   1
  -1 -15  18 227.116 144.800  -2
  19  15  -2 227.116 144.800   1
  20   0 -34-42.6815 192.188   1
  20   0 -32 8.30853 218.361   1
  20   0 -30 261.326 260.381   1
  20   0 -28 1739.98 299.501   1
  20   0 -26 1601.42 288.205   1
 -24   0  20 1443.41 384.581  -2
  20   0 -24 1443.41 384.581   1
  22   0 -20 8731.85 305.600  -2
 -20   0  22 8731.85 305.600   1
 -20   0  20 352.703 243.905  -2
  20   0 -20 352.703 243.905   1
  18   0 -20 9224.73 224.353  -2
 -20   0  18 9224.73 224.353   1
  16   0 -20 10767.9 206.609  -2
 -20   0  16 10767.9 206.609   1
  20   0 -14 1426.93 219.015   1
 -14   0  20 8207.00 306.110  -2
  20   0 -14 8207.00 306.110   1
  20   0 -12 4404.25 253.680   1
  20   0 -10 1054.29 223.305   1
  20   0  -8 5390.35 271.665   1
  20   0  -6 13863.3 346.472   1
  20   0  -4 568.418 220.510   1
  20   0  -2 7590.97 284.529   1
   2   0  18 62178.2 597.586  -2
  20   0   0 62178.2 597.586   1
   4   0  18 2685.92 285.494  -2
  20   0   2 2685.92 285.494   1
   6   0  18 13680.8 419.531  -2
  20   0   4 13680.8 419.531   1
  -8   0 -18 20318.7 204.166  -2
 -20   0  -6 20318.7 204.166   1
 -10   0 -18 11779.3 166.604  -2
 -20   0  -8 11779.3 166.604   1
 -12   0 -18 34598.6 221.652  -2
 -20   0 -10 34598.6 221.652   1
 -20   0 -12 11472.4 147.191   1
 -20   0 -14 1425.87 109.797   1
  20   0  16 498.109 119.655   1
  20   0  18 4136.20 138.698   1
  20   0  20 12826.4 166.262   1
  20   0  22 6933.90 138.908   1
  20   0  24 908.435 116.523   1
  28   0  16 885.641 323.419  -2
  20   0  24 885.641 323.419   1
  30   0  16 1479.71 150.563  -2
  20   0  26 1479.71 150.563   1
  32   0  16 1067.57 243.940  -2
  20   0  28 1067.57 243.940   1
 -36  -2  21 152.771 206.205  -2
  20   2 -35 152.771 206.205   1
  20   2 -34 2.41665 120.271   1
 -34  -2  21 71.3106 184.255  -2
  20   2 -33 71.3106 184.255   1
  20  -2 -32 27.6371 156.361   1
 -32   2  21 36.7875 214.907  -2
  20  -2 -31 36.7875 214.907   1
  20  -2 -30-107.022 174.521   1
 -30  -2  21 1169.90 240.707  -2
  20   2 -29 1169.90 240.707   1
  20  -2 -28 227.804 198.667   1
  20   2 -27 1309.15 212.493   1
  20   2 -26-31.7021 192.536   1
  20  -2 -25 2099.29 214.163   1
 -24  -2  20 470.828 252.807  -2
  20   2 -24 470.828 252.807   1
  20  -2 -23 1216.64 195.703   1
 -22  -2  20 1562.26 246.214  -2
  20   2 -22 1562.26 246.214   1
  20  -2 -21 170.420 120.633   1
  20   2 -20 1185.98 169.056  -2
 -20  -2  20 1185.98 169.056   1
 -20   2  19 3044.38 151.290   1
 -18  -2  20 185.579 143.481  -2
  20   2 -18 185.579 143.481   1
 -20   2  17 1484.65 101.953   1
  16  -2 -20 1972.03 128.411  -2
 -20   2  16 1972.03 128.411   1
 -20   2  15 418.590 94.3062   1
  20  -2 -14-44.6967 95.5786   1
 -20   2  13 3124.37 135.595   1
 -12  -2  19 4447.25 290.543  -2
  20   2 -13 4447.25 290.543   1
  20   2 -12 261.426 99.3807   1
 -10  -2  19 4528.46 150.774  -2
  20   2 -11 4528.46 150.774   1
 -20   2  10 91.5352 98.8571   1
  -8  -2  19 10749.0 232.357  -2
  20   2  -9 10749.0 232.357   1
  20   2  -8 109.302 119.571   1
  -6  -2  19 6556.88 275.854  -2
  20   2  -7 6556.88 275.854   1
  20  -2  -6 5561.49 201.771   1
  -4   2  19 13094.2 309.880  -2
  20  -2  -5 13094.2 309.880   1
  20  -2  -4 1957.51 171.194   1
  -2  -2  19 16976.1 297.091  -2
  20   2  -3 16976.1 297.091   1
 -20  -2   2 58.3073 130.548   1
 -20  -2   1 554.248 135.430   1
  -2   2 -18 9177.88 210.314  -2
 -20  -2   0 9177.88 210.314   1
 -20  -2  -1 21149.7 241.947   1
  -4   2 -18 1689.54 171.091  -2
 -20  -2  -2 1689.54 171.091   1
 -20  -2  -3 13537.4 122.449   1
  -6   2 -18 1575.27 91.5590  -2
 -20  -2  -4 1575.27 91.5590   1
 -20  -2  -5 586.044 60.4703   1
   8  -2  18 1990.22 85.5138  -2
  20   2   6 1990.22 85.5138   1
  20   2   7 468.971 67.0887   1
  10  -2  18 1872.51 92.5805  -2
  20   2   8 1872.51 92.5805   1
  20   2   9 786.300 65.9331   1
 -12   2 -18 4596.18 100.924  -2
 -20  -2 -10 4596.18 100.924   1
 -20  -2 -11 5458.66 104.933   1
  14   2  17 10340.7 174.476  -2
  20  -2  11 10340.7 174.476   1
  20   2  12 732.454 72.2467   1
  16  -2  17 14345.1 126.314  -2
  20   2  13 14345.1 126.314   1
  20   2  14 1587.89 82.5358   1
  18   2  17 9021.37 130.670  -2
  20  -2  15 9021.37 130.670   1
  20  -2  16 5085.97 96.8850   1
  20   2  17 2721.16 119.419  -2
  20  -2  17 2721.16 119.419   1
  20  -2  18 3792.66 94.0683   1
  22  -2  17 5660.69 130.295  -2
  20   2  19 5660.69 130.295   1
  20   2  20 72.8895 84.5973   1
  24  -2  17 2076.24 112.974  -2
  20   2  21 2076.24 112.974   1
  20  -2  22 443.943 79.9930   1
  26  -2  17 4032.39 109.870  -2
  20   2  23 4032.39 109.870   1
  20   2  24 2302.56 122.443   1
  28  -2  16 2663.64 232.616  -2
  20   2  24 2663.64 232.616   1
  20   2  25 2193.52 120.975   1
  30   2  16 1870.64 138.930  -2
  20  -2  26 1870.64 138.930   1
  20   2  27 228.130 96.2598   1
  32  -2  16 442.869 116.671  -2
  20   2  28 442.869 116.671   1
  20   4 -34 126.230 163.494   1
 -34  -4  21-127.955 237.315  -2
  20   4 -33-127.955 237.315   1
  20   4 -32 188.344 204.719   1
 -32  -4  21 169.211 284.866  -2
  20   4 -31 169.211 284.866   1
  20   4 -30 771.009 260.409   1
 -30  -4  21-1.38592 347.824  -2
  20   4 -29-1.38592 347.824   1
  20   4 -28 141.447 282.102   1
  20   4 -27-36.4591 173.634   1
  20  -4 -26 941.430 183.409   1
  20   4 -25 873.777 320.780   1
 -24  -4  20 1409.55 401.965  -2
  20   4 -24 1409.55 401.965   1
  20   4 -23 174.703 289.965   1
 -22  -4  20 5381.87 440.049  -2
  20   4 -22 5381.87 440.049   1
  20   4 -21-82.1909 281.963   1
  20  -4 -20 177.747 201.748  -2
 -20   4  20 177.747 201.748   1
  20  -4 -19-34.5700 149.203   1
 -18  -4  20 1673.82 169.109  -2
  20   4 -18 1673.82 169.109   1
  20  -4 -17 156.948 117.228   1
 -16   4  20 2224.75 158.191  -2
  20  -4 -16 2224.75 158.191   1
  20  -4 -15 312.355 116.032   1
  20  -4 -14 6605.49 149.892   1
  20   4 -13 3546.99 179.968   1
 -12   4  19 4854.91 227.550  -2
  20  -4 -13 4854.91 227.550   1
  20   4 -12 55.3310 121.450   1
 -10  -4  19 624.879 162.610  -2
  20   4 -11 624.879 162.610   1
  20   4 -10 4513.37 148.267   1
  -8  -4  19 7145.92 182.415  -2
  20   4  -9 7145.92 182.415   1
 -20  -4   8 378.491 109.801   1
  -6  -4  19 3893.93 158.237  -2
  20   4  -7 3893.93 158.237   1
 -20  -4   6 153.718 96.9795   1
   4   4 -19 1315.44 167.140  -2
 -20  -4   5 1315.44 167.140   1
 -20  -4   4 4615.98 151.936   1
  -2  -4  19 4598.05 184.707  -2
  20   4  -3 4598.05 184.707   1
 -20  -4   2 3142.30 119.429   1
   0  -4  18 5632.16 259.312  -2
  20   4  -2 5632.16 259.312   1
 -20  -4   1 1458.17 97.4279   1
   2  -4  18 27716.8 189.942  -2
  20   4   0 27716.8 189.942   1
  20   4   1 1293.20 83.7585   1
   4  -4  18 8286.80 131.970  -2
  20   4   2 8286.80 131.970   1
  20  -4   3 1500.20 79.3888   1
   6  -4  18 25399.8 174.019  -2
  20   4   4 25399.8 174.019   1
  20   4   5 7976.08 96.8613   1
   8  -4  18 12422.5 77.5424  -2
  20   4   6 12422.5 77.5424   1
 -20  -4  -7 4944.36 95.7026   1
  10   4  18 4316.33 135.591  -2
  20  -4   8 4316.33 135.591   1
 -20  -4  -9 1047.05 93.8034   1
  20   4  10 461.584 160.264   1
  12   4  18 1151.31 122.684  -2
  20  -4  10 1151.31 122.684   1
 -20   4 -11 550.522 109.528   1
  14   4  17 2237.81 178.746  -2
  20  -4  11 2237.81 178.746   1
  20   4  12 1643.00 94.5494   1
  16  -4  17 1428.21 124.767  -2
  20   4  13 1428.21 124.767   1
  20  -4  14 12072.9 126.313   1
  18  -4  17 442.834 123.795  -2
  20   4  15 442.834 123.795   1
  20  -4  16 2442.41 104.780   1
  20  -4  17 955.160 130.364  -2
  20   4  17 955.160 130.364   1
  20   4  18 55.1361 94.8612   1
  22  -4  17 336.080 129.715  -2
  20   4  19 336.080 129.715   1
  20   4  20 5145.65 110.944   1
  24  -4  17 93.2802 120.496  -2
  20   4  21 93.2802 120.496   1
  20   4  22 8604.57 161.200   1
  26  -4  17 1039.52 161.342  -2
  20   4  23 1039.52 161.342   1
  20   4  24 780.292 153.495   1
  28  -4  16 1056.94 280.165  -2
  20   4  24 1056.94 280.165   1
  20   4  25 49.0277 118.673   1
  30  -4  16 226.202 141.546  -2
  20   4  26 226.202 141.546   1
  20   4  27 295.919 99.0270   1
  20   6 -32 91.7931 168.271   1
 -32  -6  21 129.413 253.602  -2
  20   6 -31 129.413 253.602   1
  20   6 -30 54.3453 219.294   1
 -30  -6  21-9.53553 298.847  -2
  20   6 -29-9.53553 298.847   1
  20   6 -28 1158.25 251.768   1
  20   6 -27 520.181 267.125   1
  20   6 -26 227.542 278.381   1
  20   6 -25-39.2165 286.904   1
 -24  -6  20 2540.07 402.383  -2
  20   6 -24 2540.07 402.383   1
  20   6 -23 1807.53 297.136   1
 -22  -6  20 3323.12 399.626  -2
  20   6 -22 3323.12 399.626   1
  20   6 -21 607.619 295.305   1
 -20  -6  20 191.516 134.807  -2
  20   6 -20 191.516 134.807   1
  20   6 -19 1808.22 274.861   1
 -18  -6  20 940.884 356.608  -2
  20   6 -18 940.884 356.608   1
  20   6 -17 87.5570 149.574   1
  20   6 -16 198.871 239.074   1
 -16  -6  20 1545.30 250.650  -2
  20   6 -16 1545.30 250.650   1
  20  -6 -15 7126.24 190.699   1
  20  -6 -14 5436.80 180.813   1
  20   6 -13 48.1805 230.339   1
 -12   6  19 984.336 237.692  -2
  20  -6 -13 984.336 237.692   1
  20  -6 -12 457.765 142.777   1
 -10   6  19 6201.32 219.541  -2
  20  -6 -11 6201.32 219.541   1
  20  -6 -10 1742.13 147.464   1
  -8   6  19 1312.42 184.398  -2
  20  -6  -9 1312.42 184.398   1
  20   6  -8 540.230 132.284   1
  -6  -6  19 2925.94 190.520  -2
  20   6  -7 2925.94 190.520   1
  20   6  -6 136.253 116.841   1
  -4  -6  19 6532.37 182.803  -2
  20   6  -5 6532.37 182.803   1
  20   6  -4 1431.65 123.669   1
  -2  -6  19 1224.16 150.417  -2
  20   6  -3 1224.16 150.417   1
  20   6  -2 5295.67 287.075   1
   0  -6  18 6631.80 184.149  -2
  20   6  -2 6631.80 184.149   1
  20   6  -1 3155.51 124.451   1
   2  -6  18 8034.33 170.008  -2
  20   6   0 8034.33 170.008   1
  20   6   1 9575.21 145.440   1
   4  -6  18 5297.03 144.996  -2
  20   6   2 5297.03 144.996   1
  20   6   3 4664.37 99.7882   1
   6  -6  18 8623.32 145.388  -2
  20   6   4 8623.32 145.388   1
  20   6   5 2040.36 92.3039   1
   8  -6  18 3951.79 139.604  -2
  20   6   6 3951.79 139.604   1
  20   6   7 788.658 98.1217   1
  10  -6  18 18119.2 218.492  -2
  20   6   8 18119.2 218.492   1
  20   6   9 1698.36 115.948   1
  12   6  18 6746.10 173.851  -2
  20  -6  10 6746.10 173.851   1
  20   6  11 479.814 182.563   1
  14   6  17 2034.72 187.648  -2
  20  -6  11 2034.72 187.648   1
  20   6  12 4803.05 133.176   1
  16   6  17 261.810 148.481  -2
  20  -6  13 261.810 148.481   1
  20   6  14 199.017 99.4471   1
  18  -6  17 6657.35 153.219  -2
  20   6  15 6657.35 153.219   1
  20   6  16 289.647 97.0550   1
  20  -6  17 10973.0 173.017  -2
  20   6  17 10973.0 173.017   1
  20   6  18 123.784 105.631   1
  22  -6  17 1974.98 179.848  -2
  20   6  19 1974.98 179.848   1
  20   6  20 380.874 133.672   1
  24  -6  17 3485.61 182.701  -2
  20   6  21 3485.61 182.701   1
  20   6  22 281.700 123.060   1
  26  -6  17 2517.29 165.183  -2
  20   6  23 2517.29 165.183   1
  20   6  24 342.380 136.847   1
  28  -6  16 881.184 236.163  -2
  20   6  24 881.184 236.163   1
  20   6  25 282.494 101.315   1
  30  -6  16 2946.05 153.096  -2
  20   6  26 2946.05 153.096   1
  20   8 -29 13.3277 175.953   1
  20   8 -28 174.992 196.298   1
  20   8 -27 86.0533 214.209   1
  20   8 -26 91.8968 242.549   1
  20   8 -25 2224.30 264.176   1
 -24  -8  20 402.868 344.356  -2
  20   8 -24 402.868 344.356   1
  20   8 -23 985.824 268.330   1
 -22  -8  20 492.297 369.027  -2
  20   8 -22 492.297 369.027   1
  20   8 -21-112.658 275.899   1
 -20  -8  20 1154.74 350.020  -2
  20   8 -20 1154.74 350.020   1
  20   8 -19 237.155 260.679   1
 -18  -8  20 1797.92 355.583  -2
  20   8 -18 1797.92 355.583   1
  20   8 -17 251.137 267.335   1
 -16  -8  20 2769.22 362.494  -2
  20   8 -16 2769.22 362.494   1
  20   8 -15 665.296 266.063   1
  20   8 -14 2992.04 284.284   1
 -12  -8  19 2222.34 352.949  -2
  20   8 -13 2222.34 352.949   1
  20   8 -12 1192.23 167.060   1
 -10  -8  19 17.0211 105.935  -2
  20   8 -11 17.0211 105.935   1
  20  -8 -10 87.8548 158.226   1
  -8  -8  19 12406.7 285.301  -2
  20   8  -9 12406.7 285.301   1
  20   8  -8 57.9049 183.460   1
  -6  -8  19 2240.02 254.163  -2
  20   8  -7 2240.02 254.163   1
  20   8  -6 821.105 180.277   1
  -4  -8  19 765.695 229.585  -2
  20   8  -5 765.695 229.585   1
  20   8  -4 477.140 177.750   1
  -2  -8  19 2457.02 244.128  -2
  20   8  -3 2457.02 244.128   1
  20   8  -2 213.057 166.356   1
  20   8  -1 275.415 170.407   1
   2  -8  18 3486.33 236.196  -2
  20   8   0 3486.33 236.196   1
  20   8   1 135.480 172.199   1
   4  -8  18 2737.25 239.287  -2
  20   8   2 2737.25 239.287   1
  20   8   3 2437.44 102.900   1
   6  -8  18 826.568 129.985  -2
  20   8   4 826.568 129.985   1
  20   8   5 266.324 104.463   1
   8  -8  18 6509.79 193.758  -2
  20   8   6 6509.79 193.758   1
  20   8   7 82.9040 116.022   1
  10  -8  18 9999.71 213.546  -2
  20   8   8 9999.71 213.546   1
  20   8   9 1058.33 129.544   1
  12  -8  18 8766.99 207.117  -2
  20   8  10 8766.99 207.117   1
  20   8  11 8076.39 224.821   1
  14  -8  17 9599.16 286.978  -2
  20   8  11 9599.16 286.978   1
  20   8  12 7276.66 156.594   1
  16  -8  17 5064.20 180.988  -2
  20   8  13 5064.20 180.988   1
  20   8  14 2691.02 135.966   1
  18  -8  17 5063.55 269.426  -2
  20   8  15 5063.55 269.426   1
  20   8  16 664.887 174.463   1
  20  -8  17 4809.48 254.069  -2
  20   8  17 4809.48 254.069   1
  20   8  18 3103.79 183.084   1
  22  -8  17 697.767 207.441  -2
  20   8  19 697.767 207.441   1
  20   8  20 2175.43 161.048   1
  24  -8  17-5.42089 179.815  -2
  20   8  21-5.42089 179.815   1
  20   8  22 205.394 136.130   1
  26  -8  17 439.599 161.752  -2
  20   8  23 439.599 161.752   1
 -20  10  25 567.312 109.313   1
 -24 -10  20 686.944 248.246  -2
  20  10 -24 686.944 248.246   1
  20  10 -23-22.0990 201.025   1
 -22 -10  20 736.363 285.606  -2
  20  10 -22 736.363 285.606   1
  20  10 -21-44.7159 230.180   1
 -20 -10  20 1642.28 321.566  -2
  20  10 -20 1642.28 321.566   1
  20  10 -19 1376.97 255.819   1
 -18 -10  20 2539.68 339.448  -2
  20  10 -18 2539.68 339.448   1
  20  10 -17 70.8159 235.264   1
 -16 -10  20 925.000 327.412  -2
  20  10 -16 925.000 327.412   1
  20  10 -15 177.888 256.432   1
  20  10 -14 89.4371 250.801   1
 -12 -10  19 4308.83 360.576  -2
  20  10 -13 4308.83 360.576   1
  20  10 -12 6247.66 315.342   1
 -10 -10  19 6190.43 395.389  -2
  20  10 -11 6190.43 395.389   1
  20  10 -10 1578.57 267.695   1
  -8 -10  19 12.2869 109.971  -2
  20  10  -9 12.2869 109.971   1
  20  10  -8 702.062 271.629   1
  -6 -10  19 3807.89 361.984  -2
  20  10  -7 3807.89 361.984   1
  20  10  -6 3951.35 284.408   1
  -4 -10  19 2870.70 366.443  -2
  20  10  -5 2870.70 366.443   1
  20  10  -4 1424.64 266.692   1
  -2 -10  19 945.269 340.723  -2
  20  10  -3 945.269 340.723   1
  20  10  -2 323.321 241.106   1
  20  10  -1 3645.35 271.191   1
   2 -10  18 20899.3 441.154  -2
  20  10   0 20899.3 441.154   1
  20  10   1 198.566 256.699   1
   4 -10  18 1687.06 327.238  -2
  20  10   2 1687.06 327.238   1
  20  10   3 3384.70 206.218   1
   6 -10  18 1802.35 252.664  -2
  20  10   4 1802.35 252.664   1
  20  10   5 6926.50 221.719   1
   8 -10  18 285.982 227.823  -2
  20  10   6 285.982 227.823   1
  20  10   7 1959.84 178.533   1
  10 -10  18 12121.9 301.219  -2
  20  10   8 12121.9 301.219   1
  20  10   9 19.1858 149.844   1
  12 -10  18 1383.59 206.086  -2
  20  10  10 1383.59 206.086   1
  20  10  11 70.2451 145.474   1
   2 -12  18 5672.63 254.964  -2
  20  12   0 5672.63 254.964   1
  20  12   1 4207.85 199.835   1
   4 -12  18 1990.72 242.335  -2
  20  12   2 1990.72 242.335   1
  20  12   3 1044.58 164.192   1
   6 -12  18 1874.22 221.096  -2
  20  12   4 1874.22 221.096   1
  20  12   5 2373.60 171.807   1
   8 -12  18 991.335 207.004  -2
  20  12   6 991.335 207.004   1
  20  12   7 1293.85 146.431   1
  20  14  -4 381.559 138.261   1
  -2 -14  19 41.0693 181.179  -2
  20  14  -3 41.0693 181.179   1
  20  14  -2 567.495 137.624   1
  20  14  -1 321.059 135.818   1
   2 -14  18 884.379 176.707  -2
  20  14   0 884.379 176.707   1
  20  14   1 63.6391 128.060   1
   4 -14  18 1114.36 175.786  -2
  20  14   2 1114.36 175.786   1
 -35  -1  22 141.770 155.254  -2
  21   1 -34 141.770 155.254   1
  21  -1 -33 88.6022 138.856   1
 -33   1  22 241.046 198.000  -2
  21  -1 -32 241.046 198.000   1
  21  -1 -31 91.0943 159.531   1
  21  -1 -30 264.372 245.752   1
 -31  -1  22 258.578 330.700  -2
  21   1 -30 258.578 330.700   1
  21   1 -29 227.032 179.163   1
  21   1 -28 359.348 187.369   1
  21  -1 -27 696.374 205.680   1
  21   1 -26 666.768 208.908   1
 -25  -1  21 4994.60 278.906  -2
  21   1 -25 4994.60 278.906   1
  21   1 -24 58.0878 198.469   1
 -23  -1  21 1280.78 260.698  -2
  21   1 -23 1280.78 260.698   1
  21   1 -22 99.3185 191.696   1
 -21   1  21 117.980 91.6616  -2
  21  -1 -21 117.980 91.6616   1
 -21   1  20 307.927 127.433   1
  19   1 -21 1387.52 169.864  -2
 -21  -1  19 1387.52 169.864   1
 -21  -1  18 2028.38 104.452   1
  17  -1 -21 2818.80 140.678  -2
 -21   1  17 2818.80 140.678   1
  21  -1 -16 436.791 100.095   1
 -21   1  15 5994.34 120.758   1
  21   1 -14 1341.79 130.256   1
 -13  -1  20 2334.24 212.076  -2
  21   1 -14 2334.24 212.076   1
  21   1 -13 193.467 92.5341   1
 -11  -1  20 7497.88 173.603  -2
  21   1 -12 7497.88 173.603   1
  21   1 -11 23478.9 196.619   1
  -9  -1  20 3407.08 192.334  -2
  21   1 -10 3407.08 192.334   1
  21   1  -9 182.635 161.621   1
  -7  -1  20 7527.36 287.774  -2
  21   1  -8 7527.36 287.774   1
  21   1  -7 1221.72 170.140   1
  -5  -1  20 12615.8 318.182  -2
  21   1  -6 12615.8 318.182   1
  21  -1  -5 497.663 163.835   1
  -3   1  20 4299.93 231.644  -2
  21  -1  -4 4299.93 231.644   1
  21  -1  -3 5186.69 194.273   1
  21  -1  -2 57.6168 148.213   1
   1  -1  19 3337.74 210.662  -2
  21   1  -1 3337.74 210.662   1
  21   1   0 767.851 105.904   1
   3   1  19 5109.58 159.872  -2
  21  -1   1 5109.58 159.872   1
  21   1   2 186.626 64.8266   1
   5  -1  19 1828.87 91.8040  -2
  21   1   3 1828.87 91.8040   1
 -21  -1  -4 102.510 60.4242   1
   7  -1  19 11501.9 111.842  -2
  21   1   5 11501.9 111.842   1
 -21  -1  -6 17203.6 94.2998   1
  -9   1 -19 1413.78 94.0586  -2
 -21  -1  -7 1413.78 94.0586   1
 -21  -1  -8 19458.1 111.826   1
 -11   1 -19 10193.7 117.753  -2
 -21  -1  -9 10193.7 117.753   1
 -21  -1 -10 2733.38 104.958   1
  13  -1  18 7417.30 163.065  -2
  21   1  10 7417.30 163.065   1
 -21  -1 -11 7985.14 93.7877   1
  15  -1  18 5855.47 110.510  -2
  21   1  12 5855.47 110.510   1
 -21  -1 -13 618.957 76.1039   1
 -17   1 -18 2699.29 112.444  -2
 -21  -1 -14 2699.29 112.444   1
  21  -1  15 1232.25 86.6519   1
  19   1  18 4339.21 126.849  -2
  21  -1  16 4339.21 126.849   1
  21   1  17 232.803 85.3226   1
  21  -1  18 6072.33 135.176  -2
  21   1  18 6072.33 135.176   1
  21  -1  19 869.446 88.7025   1
  23  -1  18 1615.15 114.551  -2
  21   1  20 1615.15 114.551   1
  21   1  21 277.033 80.3421   1
  25  -1  18 3200.25 112.884  -2
  21   1  22 3200.25 112.884   1
  21  -1  23 429.996 92.6316   1
  27   1  17 1604.25 177.179  -2
  21  -1  23 1604.25 177.179   1
  21   1  24 2102.83 74.1524   1
  29  -1  17 493.710 136.429  -2
  21   1  25 493.710 136.429   1
  21   1  26 607.660 97.5358   1
  31  -1  17 4388.38 123.053  -2
  21   1  27 4388.38 123.053   1
  21   1  28 732.324 163.390   1
 -35  -3  22 95.4713 211.546  -2
  21   3 -34 95.4713 211.546   1
  21   3 -33 115.371 188.899   1
 -33  -3  22 93.1022 272.263  -2
  21   3 -32 93.1022 272.263   1
  21   3 -31 138.480 237.106   1
  21  -3 -30 763.189 208.687   1
 -31  -3  22 255.729 310.258  -2
  21   3 -30 255.729 310.258   1
  21   3 -29 74.8477 163.444   1
  21   3 -28 42.2640 169.257   1
  21  -3 -27 398.364 174.813   1
  21  -3 -26 39.5675 184.258   1
 -25  -3  21 1732.06 251.796  -2
  21   3 -25 1732.06 251.796   1
  21   3 -24 252.459 177.857   1
 -23  -3  21 1957.82 244.868  -2
  21   3 -23 1957.82 244.868   1
  21   3 -22-56.8818 174.601   1
 -21  -3  21 1707.14 240.190  -2
  21   3 -21 1707.14 240.190   1
 -21   3  20 575.635 141.827   1
  19  -3 -21 832.543 184.372  -2
 -21   3  19 832.543 184.372   1
  21   3 -18 101.707 137.391   1
 -17  -3  21 702.868 168.758  -2
  21   3 -17 702.868 168.758   1
  21   3 -16 24.5044 120.380   1
  21   3 -15 1236.62 132.929   1
 -21   3  14 8732.50 224.156   1
 -13  -3  20 10610.1 358.703  -2
  21   3 -14 10610.1 358.703   1
  21   3 -13 300.009 112.127   1
 -11  -3  20 12500.3 193.310  -2
  21   3 -12 12500.3 193.310   1
  21   3 -11 2671.87 147.235   1
  -9  -3  20 2400.18 163.088  -2
  21   3 -10 2400.18 163.088   1
 -21  -3   9 6458.68 129.557   1
   7   3 -20 25470.7 240.920  -2
 -21  -3   8 25470.7 240.920   1
 -21  -3   7 1308.86 101.988   1
   5   3 -20 13270.6 213.631  -2
 -21  -3   6 13270.6 213.631   1
  21  -3  -5 654.710 114.404   1
   3   3 -20 8431.34 176.281  -2
 -21  -3   4 8431.34 176.281   1
 -21  -3   3 783.682 136.565   1
  -1  -3  19 756.740 251.348  -2
  21   3  -3 756.740 251.348   1
  21   3  -2 7196.19 111.168   1
   1  -3  19 3131.36 104.386  -2
  21   3  -1 3131.36 104.386   1
  21   3   0 216.060 73.1839   1
   3  -3  19 2422.34 112.090  -2
  21   3   1 2422.34 112.090   1
  21   3   2 227.297 64.3151   1
   5  -3  19 3630.74 99.4710  -2
  21   3   3 3630.74 99.4710   1
  21   3   4 5710.84 77.4577   1
  -7   3 -19 3082.55 96.6215  -2
 -21  -3  -5 3082.55 96.6215   1
 -21  -3  -6 5818.72 79.5146   1
  -9   3 -19 1463.28 99.7430  -2
 -21  -3  -7 1463.28 99.7430   1
 -21  -3  -8 16090.1 118.988   1
  21   3   9 5954.51 214.090   1
 -11   3 -19 13012.2 135.311  -2
 -21  -3  -9 13012.2 135.311   1
 -21  -3 -10 5829.54 100.963   1
  13  -3  18 7713.53 199.662  -2
  21   3  10 7713.53 199.662   1
  21   3  11 6349.82 87.7406   1
  15  -3  18 11894.1 129.227  -2
  21   3  12 11894.1 129.227   1
  21  -3  13 2479.34 85.3969   1
  17  -3  18 6006.11 121.803  -2
  21   3  14 6006.11 121.803   1
  21   3  15 283.128 81.0099   1
  19   3  18 54.8924 80.9539  -2
  21  -3  16 54.8924 80.9539   1
  21   3  17 76.3452 82.6625   1
  21   3  18 455.228 133.489  -2
  21  -3  18 455.228 133.489   1
  21  -3  19 202.528 100.371   1
  23  -3  18 951.906 128.544  -2
  21   3  20 951.906 128.544   1
  21  -3  21 1062.04 96.5187   1
  25  -3  18 452.565 115.660  -2
  21   3  22 452.565 115.660   1
  21   3  23 1156.20 168.972   1
  27   3  17 1373.13 227.878  -2
  21  -3  23 1373.13 227.878   1
  21   3  24 1735.27 122.853   1
  29  -3  17 2363.76 163.819  -2
  21   3  25 2363.76 163.819   1
  21   3  26 752.091 111.358   1
  31  -3  17 798.414 121.742  -2
  21   3  27 798.414 121.742   1
  21   5 -33 20.7618 153.382   1
 -33  -5  22-144.309 231.815  -2
  21   5 -32-144.309 231.815   1
  21   5 -31-14.3433 203.271   1
 -31  -5  22 15.6637 148.976  -2
  21   5 -30 15.6637 148.976   1
  21   5 -29 111.139 235.564   1
  21   5 -28 94.1058 249.598   1
  21   5 -27 1010.00 278.006   1
  21   5 -26 481.727 300.825   1
 -25  -5  21 371.155 387.775  -2
  21   5 -25 371.155 387.775   1
  21   5 -24 130.358 303.737   1
 -23  -5  21 684.440 406.475  -2
  21   5 -23 684.440 406.475   1
  21   5 -22 253.938 314.200   1
 -21  -5  21 1457.47 396.536  -2
  21   5 -21 1457.47 396.536   1
  21   5 -20 519.873 288.609   1
 -19  -5  21 12351.1 446.953  -2
  21   5 -19 12351.1 446.953   1
  21  -5 -18 838.679 190.325   1
 -17   5  21 488.694 188.724  -2
  21  -5 -17 488.694 188.724   1
  21   5 -16 959.373 141.893   1
  21   5 -15 452.699 133.609   1
  21   5 -14 204.559 219.643   1
 -13   5  20 488.800 221.428  -2
  21  -5 -14 488.800 221.428   1
  21   5 -13 2221.29 148.393   1
 -11  -5  20 2027.93 181.915  -2
  21   5 -12 2027.93 181.915   1
  21  -5 -11 5414.14 165.193   1
  -9  -5  20 2782.33 194.518  -2
  21   5 -10 2782.33 194.518   1
  21   5  -9 1542.02 134.460   1
  -7  -5  20 2733.71 183.079  -2
  21   5  -8 2733.71 183.079   1
 -21  -5   7 2092.02 149.404   1
   5   5 -20 391.802 179.055  -2
 -21  -5   6 391.802 179.055   1
 -21  -5   5 456.588 105.199   1
   3   5 -20 1206.95 139.278  -2
 -21  -5   4 1206.95 139.278   1
 -21  -5   3 1927.40 193.292   1
  -1  -5  19 3896.54 168.408  -2
  21   5  -3 3896.54 168.408   1
 -21  -5   2 952.660 102.278   1
  -1   5 -19 1185.20 130.915  -2
 -21  -5   1 1185.20 130.915   1
 -21  -5   0 117.838 99.0011   1
   3  -5  19 6969.49 136.348  -2
  21   5   1 6969.49 136.348   1
  21   5   2 2524.93 87.5342   1
   5  -5  19 3439.24 118.440  -2
  21   5   3 3439.24 118.440   1
  21   5   4 3352.25 90.8149   1
   7  -5  19 11519.1 151.099  -2
  21   5   5 11519.1 151.099   1
 -21  -5  -6 4050.33 107.203   1
   9  -5  19 8821.95 161.320  -2
  21   5   7 8821.95 161.320   1
  21  -5   8 3352.08 120.315   1
  11   5  19 17282.7 206.384  -2
  21  -5   9 17282.7 206.384   1
  21   5  10 2040.79 200.779   1
  13   5  18 3375.12 194.992  -2
  21  -5  10 3375.12 194.992   1
  21  -5  11 3552.57 123.257   1
  15   5  18 851.499 151.317  -2
  21  -5  12 851.499 151.317   1
  21   5  13 650.749 96.5224   1
  17   5  18 1922.95 132.036  -2
  21  -5  14 1922.95 132.036   1
  21   5  15 227.865 96.4304   1
  19  -5  18 1499.16 140.567  -2
  21   5  16 1499.16 140.567   1
  21   5  17 962.144 102.608   1
  21  -5  18 3535.75 146.779  -2
  21   5  18 3535.75 146.779   1
  21  -5  19 812.197 97.8388   1
  23  -5  18 797.590 135.936  -2
  21   5  20 797.590 135.936   1
  21   5  21 134.738 126.984   1
  25  -5  18 1070.37 165.166  -2
  21   5  22 1070.37 165.166   1
  21   5  23 851.797 166.045   1
  27  -5  17 2970.36 276.076  -2
  21   5  23 2970.36 276.076   1
  21   5  24 149.488 108.204   1
  29  -5  17 1591.74 136.879  -2
  21   5  25 1591.74 136.879   1
  21   5  26 132.246 110.719   1
  21   7 -31 161.003 158.095   1
  21   7 -30 343.545 186.304   1
  21   7 -29 8.05918 204.013   1
  21   7 -28 80.1861 213.266   1
  21   7 -27-9.82942 226.558   1
  21   7 -26 238.137 242.576   1
 -25  -7  21 263.762 356.585  -2
  21   7 -25 263.762 356.585   1
  21   7 -24 113.055 263.879   1
 -23  -7  21 517.692 383.903  -2
  21   7 -23 517.692 383.903   1
  21   7 -22 1030.81 304.185   1
 -21  -7  21 574.042 378.022  -2
  21   7 -21 574.042 378.022   1
  21   7 -20 1075.79 280.496   1
 -19  -7  21 1042.16 378.436  -2
  21   7 -19 1042.16 378.436   1
  21   7 -18 141.511 265.995   1
 -17  -7  21 648.169 350.277  -2
  21   7 -17 648.169 350.277   1
  21   7 -16 161.671 282.569   1
  21   7 -15 1339.51 291.439   1
  21   7 -14 4650.37 323.131   1
 -13  -7  20 10409.5 313.516  -2
  21   7 -14 10409.5 313.516   1
  21   7 -13 2003.04 178.317   1
 -11  -7  20 4100.10 222.074  -2
  21   7 -12 4100.10 222.074   1
  21   7 -11 374.996 154.740   1
  -9  -7  20 573.276 190.304  -2
  21   7 -10 573.276 190.304   1
  21   7  -9 589.077 180.658   1
  -7  -7  20 4738.20 275.279  -2
  21   7  -8 4738.20 275.279   1
  21   7  -7 999.893 178.961   1
  -5  -7  20 2921.70 244.492  -2
  21   7  -6 2921.70 244.492   1
  21   7  -5 170.108 162.459   1
  -3  -7  20 1040.56 220.339  -2
  21   7  -4 1040.56 220.339   1
  21   7  -3 921.469 238.962   1
  -1  -7  19 2177.12 178.058  -2
  21   7  -3 2177.12 178.058   1
  21   7  -2 1223.72 118.370   1
   1  -7  19 3066.79 161.543  -2
  21   7  -1 3066.79 161.543   1
  21   7   0 493.820 113.387   1
   3  -7  19 795.724 148.656  -2
  21   7   1 795.724 148.656   1
  21   7   2 2055.60 102.711   1
   5  -7  19 563.180 116.102  -2
  21   7   3 563.180 116.102   1
  21   7   4 2700.79 97.7991   1
   7  -7  19 4573.22 149.703  -2
  21   7   5 4573.22 149.703   1
  21   7   6 2133.49 105.449   1
   9  -7  19 8273.59 183.619  -2
  21   7   7 8273.59 183.619   1
  21   7   8 3120.72 125.468   1
  11   7  19 604.792 151.217  -2
  21  -7   9 604.792 151.217   1
  21   7  10 5934.15 232.209   1
  13  -7  18 6348.59 213.041  -2
  21   7  10 6348.59 213.041   1
  21  -7  11 1712.85 123.747   1
  15  -7  18 1969.09 162.191  -2
  21   7  12 1969.09 162.191   1
  21   7  13 353.762 116.477   1
  17  -7  18 16058.9 238.644  -2
  21   7  14 16058.9 238.644   1
  21   7  15 823.499 125.752   1
  19  -7  18 842.738 160.016  -2
  21   7  16 842.738 160.016   1
  21   7  17 350.201 173.875   1
  21  -7  18 1305.35 165.922  -2
  21   7  18 1305.35 165.922   1
  21   7  19 736.135 122.111   1
  23  -7  18 269.223 196.160  -2
  21   7  20 269.223 196.160   1
  21   7  21 328.309 146.409   1
  25  -7  18 482.731 176.936  -2
  21   7  22 482.731 176.936   1
  21   7  23 1662.35 136.219   1
  21   7  24 1138.93 115.216   1
  21   9 -27 172.734 168.619   1
  21   9 -26-41.9554 188.284   1
 -25  -9  21 276.400 273.991  -2
  21   9 -25 276.400 273.991   1
  21   9 -24-88.6532 222.747   1
 -23  -9  21 596.000 309.011  -2
  21   9 -23 596.000 309.011   1
  21   9 -22 121.020 247.938   1
 -21  -9  21 393.328 331.010  -2
  21   9 -21 393.328 331.010   1
  21   9 -20 979.508 264.944   1
 -19  -9  21 189.930 327.741  -2
  21   9 -19 189.930 327.741   1
  21   9 -18 52.6594 245.385   1
 -17  -9  21 1517.17 336.533  -2
  21   9 -17 1517.17 336.533   1
  21   9 -16 77.3045 249.595   1
  21   9 -15 223.557 254.211   1
 -13  -9  20 2346.34 358.099  -2
  21   9 -14 2346.34 358.099   1
  21   9 -13 500.761 261.297   1
 -11  -9  20 3307.27 375.492  -2
  21   9 -12 3307.27 375.492   1
  21   9 -11 4732.43 330.647   1
  -9  -9  20 2530.97 383.436  -2
  21   9 -10 2530.97 383.436   1
  21   9  -9 336.767 290.559   1
  -7  -9  20 412.174 372.222  -2
  21   9  -8 412.174 372.222   1
  21   9  -7-87.0124 257.783   1
  -5  -9  20 863.600 343.980  -2
  21   9  -6 863.600 343.980   1
  21   9  -5 1375.99 266.047   1
  -3  -9  20 1785.09 346.872  -2
  21   9  -4 1785.09 346.872   1
  21   9  -3 3454.60 271.615   1
  21   9  -2 958.187 262.500   1
   1  -9  19 1805.88 332.164  -2
  21   9  -1 1805.88 332.164   1
  21   9   0-19.5145 233.402   1
   3  -9  19 2182.37 345.560  -2
  21   9   1 2182.37 345.560   1
  21   9   2 27.7321 145.215   1
   5  -9  19 294.726 198.671  -2
  21   9   3 294.726 198.671   1
  21   9   4 6332.76 235.223   1
   7  -9  19 1248.26 260.038  -2
  21   9   5 1248.26 260.038   1
  21   9   6 159.885 187.403   1
   9  -9  19 2700.32 168.383  -2
  21   9   7 2700.32 168.383   1
  21   9   8 346.846 116.240   1
  11  -9  19 5133.11 177.188  -2
  21   9   9 5133.11 177.188   1
  21   9  10 180.294 173.459   1
  13  -9  18 2205.32 220.683  -2
  21   9  10 2205.32 220.683   1
  21   9  11 9962.21 155.825   1
  15  -9  18 2485.18 159.365  -2
  21   9  12 2485.18 159.365   1
  21   9  13 3932.16 123.891   1
  17  -9  18 4027.66 232.029  -2
  21   9  14 4027.66 232.029   1
  21   9  15 323.641 150.364   1
  19  -9  18 287.742 194.200  -2
  21   9  16 287.742 194.200   1
  21   9  17 3136.93 163.600   1
  21  -9  18 518.511 181.682  -2
  21   9  18 518.511 181.682   1
  21   9  19-2.49452 130.303   1
  23  -9  18 1367.10 170.568  -2
  21   9  20 1367.10 170.568   1
  21  11 -18 344.969 217.658   1
 -17 -11  21 1082.46 287.799  -2
  21  11 -17 1082.46 287.799   1
  21  11 -16 87.9177 225.940   1
  21  11 -15 100.705 224.569   1
 -13 -11  20 2756.76 334.037  -2
  21  11 -14 2756.76 334.037   1
  21  11 -13 660.669 252.576   1
 -11 -11  20 2032.29 335.899  -2
  21  11 -12 2032.29 335.899   1
  21  11 -11 1170.02 257.037   1
  -9 -11  20 864.235 326.059  -2
  21  11 -10 864.235 326.059   1
  21  11  -9 2657.30 281.747   1
  -7 -11  20 3806.81 369.907  -2
  21  11  -8 3806.81 369.907   1
  21  11  -7 697.822 267.518   1
  -5 -11  20 1646.57 328.288  -2
  21  11  -6 1646.57 328.288   1
  21  11  -5 179.548 254.347   1
  -3 -11  20 5358.98 366.211  -2
  21  11  -4 5358.98 366.211   1
  21  11  -3 1158.85 263.456   1
  21  11  -2 1892.37 266.958   1
   1 -11  19 1685.30 335.306  -2
  21  11  -1 1685.30 335.306   1
   3 -11  19 8777.58 302.316  -2
  21  11   1 8777.58 302.316   1
  21  11   2 227.349 180.906   1
   5 -11  19 2411.41 261.070  -2
  21  11   3 2411.41 261.070   1
  21  11   4 657.684 174.277   1
   7 -11  19 439.204 225.032  -2
  21  11   5 439.204 225.032   1
  21  11   6 16.4064 156.698   1
   9 -11  19 550.268 207.024  -2
  21  11   7 550.268 207.024   1
  21  11   8 907.645 156.150   1
  11 -11  19 399.646 184.290  -2
  21  11   9 399.646 184.290   1
  21  13  -3 1463.08 163.692   1
  21  13  -2 2034.33 164.304   1
   1 -13  19 516.810 201.846  -2
  21  13  -1 516.810 201.846   1
  21  13   0 256.572 148.094   1
   3 -13  19 2062.12 220.926  -2
  21  13   1 2062.12 220.926   1
  21  13   2 2741.16 165.354   1
   5 -13  19 1876.72 210.167  -2
  21  13   3 1876.72 210.167   1
  21  13   4 3489.79 159.765   1
   7 -13  19 2700.11 197.020  -2
  21  13   5 2700.11 197.020   1
  21  15  -9 32.6941 92.1485   1
  -7 -15  20-12.6554 125.533  -2
  21  15  -8-12.6554 125.533   1
  21  15  -7 36.1711 95.1111   1
  -5 -15  20 383.234 129.207  -2
  21  15  -6 383.234 129.207   1
  21  15  -5 18.2383 95.5462   1
  22   0 -34 322.121 158.463   1
  22   0 -32-80.6801 206.791   1
  22   0 -30 85.2471 245.427   1
  22   0 -28 228.529 254.949   1
 -26   0  22 1523.48 385.352  -2
  22   0 -26 1523.48 385.352   1
 -24   0  22 1678.34 378.129  -2
  22   0 -24 1678.34 378.129   1
 -22   0  22 3981.81 373.943  -2
  22   0 -22 3981.81 373.943   1
  20   0 -22 7410.03 282.952  -2
 -22   0  20 7410.03 282.952   1
 -18   0  22 5716.89 206.856  -2
  22   0 -18 5716.89 206.856   1
  22   0 -16 8901.17 183.918   1
  22   0 -14 2841.64 176.142   1
  22   0 -12 3700.66 176.232   1
  22   0 -10 2163.42 163.300   1
  22   0  -8 1662.41 239.357   1
  22   0  -6 2366.05 261.630   1
  22   0  -4 2955.29 245.881   1
   0   0  20 36737.6 529.288  -2
  22   0  -2 36737.6 529.288   1
   2   0  20 10945.8 167.937  -2
  22   0   0 10945.8 167.937   1
   4   0  20 11019.9 186.021  -2
  22   0   2 11019.9 186.021   1
  -6   0 -20 36829.2 225.960  -2
 -22   0  -4 36829.2 225.960   1
  -8   0 -20 16378.0 174.165  -2
 -22   0  -6 16378.0 174.165   1
 -10   0 -20 5799.57 156.407  -2
 -22   0  -8 5799.57 156.407   1
  22   0  10 3743.30 118.509   1
 -22   0 -12 9433.66 142.506   1
  22   0  14 9424.45 156.941   1
  22   0  16 643.266 124.307   1
  22   0  18 8381.17 157.042   1
  22   0  20 315.500 121.527   1
  22   0  22 5264.52 141.542   1
  26   0  18 6795.38 357.628  -2
  22   0  22 6795.38 357.628   1
  28   0  18 4208.56 164.282  -2
  22   0  24 4208.56 164.282   1
  30   0  18 1204.42 259.649  -2
  22   0  26 1204.42 259.649   1
  22   2 -34 11.2544 161.443   1
 -34  -2  23-8.44005 223.155  -2
  22   2 -33-8.44005 223.155   1
  22  -2 -32 22.0008 136.805   1
  22   2 -31 61.2131 143.892   1
  22  -2 -30 167.457 163.011   1
  22   2 -29 392.061 169.575   1
  22   2 -28-24.7456 179.143   1
  22   2 -27 292.172 184.935   1
 -26  -2  22 61.3763 239.490  -2
  22   2 -26 61.3763 239.490   1
  22  -2 -25 537.570 197.813   1
 -24  -2  22 314.887 251.259  -2
  22   2 -24 314.887 251.259   1
  22  -2 -23-66.7012 181.263   1
 -22  -2  22 238.453 130.616  -2
  22   2 -22 238.453 130.616   1
  22  -2 -21 2074.35 201.454   1
 -20   2  22 146.041 234.144  -2
  22  -2 -20 146.041 234.144   1
 -22  -2  19 1029.57 129.962   1
 -18  -2  22 322.348 153.853  -2
  22   2 -18 322.348 153.853   1
  22   2 -17 1156.70 103.801   1
  22   2 -16 5.82267 94.2674   1
 -22   2  15 3342.26 145.601   1
 -14  -2  21 5584.84 227.088  -2
  22   2 -15 5584.84 227.088   1
 -22   2  14 1574.52 117.995   1
  12  -2 -21 7473.96 173.504  -2
 -22   2  13 7473.96 173.504   1
 -22   2  12 990.314 112.049   1
 -10  -2  21 1771.66 183.711  -2
  22   2 -11 1771.66 183.711   1
  22  -2 -10 1389.00 139.259   1
  -8  -2  21 1043.85 178.447  -2
  22   2  -9 1043.85 178.447   1
  22   2  -8 2623.30 142.179   1
  -6  -2  21 5311.65 150.209  -2
  22   2  -7 5311.65 150.209   1
  22   2  -6 519.718 84.8740   1
  -4  -2  21 1919.98 117.863  -2
  22   2  -5 1919.98 117.863   1
  22   2  -4 478.837 97.2465   1
  -2  -2  20 890.124 255.398  -2
  22   2  -4 890.124 255.398   1
  22   2  -3 3278.40 102.967   1
   0  -2  20 3146.91 124.673  -2
  22   2  -2 3146.91 124.673   1
  22   2  -1 3130.43 85.7804   1
   2  -2  20 5655.16 97.2562  -2
  22   2   0 5655.16 97.2562   1
 -22  -2  -1 2999.12 70.8864   1
  -4   2 -20 94.3082 51.3071  -2
 -22  -2  -2 94.3082 51.3071   1
  22  -2   3 3588.38 74.5465   1
  -6   2 -20 4093.41 101.970  -2
 -22  -2  -4 4093.41 101.970   1
 -22  -2  -5 25971.6 119.654   1
   8   2  20 1977.15 101.679  -2
  22  -2   6 1977.15 101.679   1
 -22  -2  -7 17228.5 118.483   1
  22   2   8 2461.04 203.245   1
 -10   2 -20 2679.44 109.952  -2
 -22  -2  -8 2679.44 109.952   1
 -22  -2  -9 225.225 107.726   1
  12   2  19 516.918 129.597  -2
  22  -2   9 516.918 129.597   1
 -22  -2 -10 193.193 74.6008   1
 -14   2 -19 7512.80 117.452  -2
 -22  -2 -11 7512.80 117.452   1
 -22  -2 -12 1103.10 81.6491   1
  16   2  19 987.524 108.258  -2
  22  -2  13 987.524 108.258   1
  22  -2  14 6316.81 99.6556   1
  18  -2  19 6459.64 131.607  -2
  22   2  15 6459.64 131.607   1
  22  -2  16 696.285 86.6671   1
  20  -2  19 5489.79 130.685  -2
  22   2  17 5489.79 130.685   1
  22  -2  18 341.768 84.4037   1
  22  -2  19 8525.78 134.989  -2
  22   2  19 8525.78 134.989   1
  22  -2  20 1590.36 85.7403   1
  24   2  19 10931.2 129.505  -2
  22  -2  21 10931.2 129.505   1
  22   2  22 480.010 117.968   1
  26  -2  18 455.676 175.871  -2
  22   2  22 455.676 175.871   1
  22   2  23 5924.68 99.2319   1
  28  -2  18 803.593 141.345  -2
  22   2  24 803.593 141.345   1
  22   2  25 718.629 101.733   1
  30  -2  18 22.4486 70.7258  -2
  22   2  26 22.4486 70.7258   1
  22   2  27 219.298 154.783   1
 -34  -4  23-22.7756 212.493  -2
  22   4 -33-22.7756 212.493   1
  22   4 -32 16.9910 182.528   1
  22   4 -31 119.151 202.173   1
  22   4 -30 0.05886 231.540   1
  22   4 -29 34.4300 228.477   1
  22   4 -28 9.15926 247.737   1
  22   4 -27 158.731 280.433   1
 -26  -4  22 1045.91 378.805  -2
  22   4 -26 1045.91 378.805   1
  22   4 -25 482.771 292.189   1
 -24  -4  22 1012.54 395.442  -2
  22   4 -24 1012.54 395.442   1
  22   4 -23-49.5189 290.927   1
 -22  -4  22 1350.58 380.649  -2
  22   4 -22 1350.58 380.649   1
  22   4 -21 520.205 293.489   1
 -20  -4  22 5193.10 411.630  -2
  22   4 -20 5193.10 411.630   1
  22   4 -19 1113.91 292.562   1
 -18  -4  22 1744.18 383.347  -2
  22   4 -18 1744.18 383.347   1
  22  -4 -17 9.61799 136.773   1
  22  -4 -16 915.434 139.603   1
  22   4 -15 407.097 213.600   1
 -14   4  21 645.119 223.415  -2
  22  -4 -15 645.119 223.415   1
  22  -4 -14 263.881 134.999   1
 -12   4  21 1068.89 173.859  -2
  22  -4 -13 1068.89 173.859   1
  22  -4 -12 797.388 132.575   1
 -10  -4  21 875.967 169.767  -2
  22   4 -11 875.967 169.767   1
  22  -4 -10 2401.76 138.250   1
  -8  -4  21 465.482 159.204  -2
  22   4  -9 465.482 159.204   1
 -22  -4   8 4353.76 155.828   1
   6   4 -21 382.240 175.948  -2
 -22  -4   7 382.240 175.948   1
 -22  -4   6 5650.41 168.037   1
   4   4 -21 1749.28 182.637  -2
 -22  -4   5 1749.28 182.637   1
 -22  -4   4 111.948 165.980   1
  -2  -4  20 53.2789 107.237  -2
  22   4  -4 53.2789 107.237   1
 -22  -4   3 617.151 101.729   1
   0  -4  20 4443.69 119.912  -2
  22   4  -2 4443.69 119.912   1
  22   4  -1 256.893 84.7345   1
   2  -4  20 22247.9 156.445  -2
  22   4   0 22247.9 156.445   1
  22   4   1 5214.56 86.9937   1
   4  -4  20 13581.4 136.565  -2
  22   4   2 13581.4 136.565   1
  22   4   3 159.275 69.6599   1
   6  -4  20 22630.9 159.415  -2
  22   4   4 22630.9 159.415   1
 -22  -4  -5 1648.47 78.5190   1
  -8   4 -20 990.985 122.388  -2
 -22  -4  -6 990.985 122.388   1
 -22  -4  -7 55.6469 91.7936   1
 -10   4 -20 14937.0 187.139  -2
 -22  -4  -8 14937.0 187.139   1
 -22  -4  -9 4581.86 155.280   1
  12   4  19 7893.16 209.076  -2
  22  -4   9 7893.16 209.076   1
 -22   4 -10 73.5004 96.8739   1
  14   4  19 1410.79 142.243  -2
  22  -4  11 1410.79 142.243   1
  22  -4  12 14754.4 136.481   1
  16  -4  19 237.424 96.7615  -2
  22   4  13 237.424 96.7615   1
  22   4  14 1608.89 104.212   1
  18   4  19 2227.66 135.413  -2
  22  -4  15 2227.66 135.413   1
  22  -4  16 152.898 98.5836   1
  20  -4  19 391.695 131.971  -2
  22   4  17 391.695 131.971   1
  22   4  18 7453.00 118.643   1
  22   4  19 201.156 124.701  -2
  22  -4  19 201.156 124.701   1
  22   4  20 1043.04 101.357   1
  24  -4  19 71.2083 66.4666  -2
  22   4  21 71.2083 66.4666   1
  22   4  22 472.326 158.570   1
  26  -4  18 671.964 282.916  -2
  22   4  22 671.964 282.916   1
  22   4  23 218.947 122.935   1
  28  -4  18 1638.88 147.646  -2
  22   4  24 1638.88 147.646   1
  22   4  25 626.574 103.948   1
  30  -4  18 759.655 144.242  -2
  22   4  26 759.655 144.242   1
  22   6 -31 46.2741 171.956   1
  22   6 -30-55.2035 194.176   1
  22   6 -29-2.03799 216.957   1
  22   6 -28 21.8350 237.556   1
  22   6 -27 11.5718 255.168   1
 -26  -6  22 751.557 350.508  -2
  22   6 -26 751.557 350.508   1
  22   6 -25 827.718 279.234   1
 -24  -6  22 4788.47 417.655  -2
  22   6 -24 4788.47 417.655   1
  22   6 -23 18.2615 306.297   1
 -22  -6  22 156.181 394.584  -2
  22   6 -22 156.181 394.584   1
  22   6 -21 2598.39 325.474   1
 -20  -6  22 3288.89 400.809  -2
  22   6 -20 3288.89 400.809   1
  22   6 -19 130.609 290.173   1
 -18  -6  22 360.049 367.680  -2
  22   6 -18 360.049 367.680   1
  22   6 -17 988.396 290.696   1
  22   6 -16 944.154 291.291   1
  22   6 -15 1090.31 253.826   1
 -14  -6  21 6827.62 284.781  -2
  22   6 -15 6827.62 284.781   1
  22   6 -14 171.263 154.603   1
 -12  -6  21 257.218 190.168  -2
  22   6 -13 257.218 190.168   1
  22  -6 -12 451.840 146.753   1
 -10  -6  21 405.325 187.034  -2
  22   6 -11 405.325 187.034   1
  22   6 -10 442.537 171.362   1
  -8  -6  21 549.465 97.0641  -2
  22   6  -9 549.465 97.0641   1
  22   6  -8 136.070 118.422   1
  -6  -6  21 1278.80 158.819  -2
  22   6  -7 1278.80 158.819   1
  22   6  -6 517.018 120.767   1
  -4  -6  21 832.380 157.976  -2
  22   6  -5 832.380 157.976   1
  22   6  -4 293.479 228.359   1
  -2  -6  20 477.629 176.038  -2
  22   6  -4 477.629 176.038   1
  22   6  -3 2496.69 126.869   1
   0  -6  20 2652.87 162.690  -2
  22   6  -2 2652.87 162.690   1
  22   6  -1 3788.08 131.690   1
   2  -6  20 6075.47 181.785  -2
  22   6   0 6075.47 181.785   1
  22   6   1 2119.25 105.627   1
   4  -6  20 7949.39 146.061  -2
  22   6   2 7949.39 146.061   1
  22   6   3 454.464 89.8080   1
   6  -6  20 756.218 120.374  -2
  22   6   4 756.218 120.374   1
  22   6   5 7754.35 126.776   1
   8  -6  20 8715.32 164.692  -2
  22   6   6 8715.32 164.692   1
  22   6   7 9301.06 149.429   1
  10   6  20 7301.20 176.291  -2
  22  -6   8 7301.20 176.291   1
  22   6   9 2255.05 211.231   1
  12   6  19 2518.83 192.605  -2
  22  -6   9 2518.83 192.605   1
  22  -6  10 1386.74 118.280   1
  14  -6  19 1605.01 155.889  -2
  22   6  11 1605.01 155.889   1
  22   6  12 3030.24 128.836   1
  16   6  19 428.729 153.057  -2
  22  -6  13 428.729 153.057   1
  22   6  14 921.581 121.850   1
  18  -6  19 6706.84 184.355  -2
  22   6  15 6706.84 184.355   1
  22   6  16 630.682 100.637   1
  20  -6  19 2323.91 148.508  -2
  22   6  17 2323.91 148.508   1
  22   6  18 3954.09 115.030   1
  22  -6  19 5558.01 187.455  -2
  22   6  19 5558.01 187.455   1
  22   6  20 1617.51 129.841   1
  24  -6  19 8402.97 248.665  -2
  22   6  21 8402.97 248.665   1
  22   6  22 501.007 136.428   1
  22   6  23 407.945 130.813   1
  28  -6  18 2920.62 165.195  -2
  22   6  24 2920.62 165.195   1
  22   8 -29 16.0199 152.477   1
  22   8 -28 118.866 181.848   1
  22   8 -27-7.96894 193.489   1
 -26  -8  22 218.018 278.452  -2
  22   8 -26 218.018 278.452   1
  22   8 -25 225.943 231.365   1
 -24  -8  22 113.334 309.724  -2
  22   8 -24 113.334 309.724   1
  22   8 -23 252.280 250.840   1
 -22  -8  22 1568.12 364.898  -2
  22   8 -22 1568.12 364.898   1
  22   8 -21 1994.51 292.139   1
 -20  -8  22 558.148 353.425  -2
  22   8 -20 558.148 353.425   1
  22   8 -19 249.089 255.602   1
 -18  -8  22 1921.30 358.033  -2
  22   8 -18 1921.30 358.033   1
  22   8 -17 758.308 266.755   1
  22   8 -16-58.8627 263.952   1
 -14  -8  21 7560.74 409.281  -2
  22   8 -15 7560.74 409.281   1
  22   8 -14 606.966 282.564   1
 -12  -8  21 750.802 357.536  -2
  22   8 -13 750.802 357.536   1
  22   8 -12 2842.25 291.342   1
 -10  -8  21 1919.69 394.798  -2
  22   8 -11 1919.69 394.798   1
  22   8 -10 460.502 268.198   1
  -8  -8  21 88.6761 360.192  -2
  22   8  -9 88.6761 360.192   1
  22   8  -8 150.968 277.497   1
  -6  -8  21 364.180 349.749  -2
  22   8  -7 364.180 349.749   1
  22   8  -6 1513.80 190.206   1
  -4  -8  21 3570.01 259.239  -2
  22   8  -5 3570.01 259.239   1
  22   8  -4 960.463 183.863   1
  22   8  -3 89.4860 179.870   1
   0  -8  20 1412.63 237.901  -2
  22   8  -2 1412.63 237.901   1
  22   8  -1 87.2614 170.808   1
   2  -8  20 1500.56 238.239  -2
  22   8   0 1500.56 238.239   1
  22   8   1 5835.36 120.781   1
   4  -8  20 92.6044 140.582  -2
  22   8   2 92.6044 140.582   1
  22   8   3 1292.27 112.879   1
   6  -8  20 8630.29 185.101  -2
  22   8   4 8630.29 185.101   1
  22   8   5 348.108 123.097   1
   8  -8  20 10276.5 214.514  -2
  22   8   6 10276.5 214.514   1
  22   8   7 258.875 121.849   1
  10  -8  20 2973.05 178.726  -2
  22   8   8 2973.05 178.726   1
  22   8   9 6086.34 233.185   1
  12  -8  19 13397.8 298.827  -2
  22   8   9 13397.8 298.827   1
  22   8  10 995.968 132.912   1
  14  -8  19 2131.02 175.093  -2
  22   8  11 2131.02 175.093   1
  22   8  12 2507.62 134.564   1
  16  -8  19 3115.39 171.874  -2
  22   8  13 3115.39 171.874   1
  22   8  14 1387.60 117.990   1
  18  -8  19 3540.51 162.327  -2
  22   8  15 3540.51 162.327   1
  22   8  16 1394.49 166.488   1
  20  -8  19 731.149 202.995  -2
  22   8  17 731.149 202.995   1
  22   8  18 220.365 143.145   1
  22  -8  19 1112.47 187.284  -2
  22   8  19 1112.47 187.284   1
  22   8  20 1909.28 147.179   1
  24  -8  19 350.498 161.869  -2
  22   8  21 350.498 161.869   1
 -24 -10  22 285.530 231.975  -2
  22  10 -24 285.530 231.975   1
  22  10 -23 189.148 186.905   1
 -22 -10  22 409.850 262.774  -2
  22  10 -22 409.850 262.774   1
  22  10 -21 59.2474 206.389   1
 -20 -10  22 1128.57 290.769  -2
  22  10 -20 1128.57 290.769   1
  22  10 -19 65.9935 229.405   1
 -18 -10  22 801.808 299.903  -2
  22  10 -18 801.808 299.903   1
  22  10 -17 910.605 258.381   1
  22  10 -16 555.575 243.049   1
 -14 -10  21 2171.97 349.287  -2
  22  10 -15 2171.97 349.287   1
  22  10 -14 395.380 261.389   1
 -12 -10  21 684.344 351.353  -2
  22  10 -13 684.344 351.353   1
  22  10 -12 82.9042 274.751   1
 -10 -10  21 2159.21 370.048  -2
  22  10 -11 2159.21 370.048   1
  22  10 -10 1880.64 271.581   1
  -8 -10  21 3899.94 405.475  -2
  22  10  -9 3899.94 405.475   1
  22  10  -8 3083.93 282.078   1
  -6 -10  21 2691.30 380.568  -2
  22  10  -7 2691.30 380.568   1
  22  10  -6-25.5351 279.762   1
  -4 -10  21 1603.46 352.400  -2
  22  10  -5 1603.46 352.400   1
  22  10  -4 905.254 264.775   1
  22  10  -3 3200.19 278.144   1
   0 -10  20 11975.7 409.183  -2
  22  10  -2 11975.7 409.183   1
  22  10  -1 1837.56 276.894   1
   2 -10  20 528.340 205.824  -2
  22  10   0 528.340 205.824   1
  22  10   1 307.736 152.316   1
   4 -10  20 140.658 253.418  -2
  22  10   2 140.658 253.418   1
  22  10   3 787.088 194.552   1
   6 -10  20 864.247 250.957  -2
  22  10   4 864.247 250.957   1
  22  10   5 123.324 180.972   1
   8 -10  20 2181.01 243.846  -2
  22  10   6 2181.01 243.846   1
  22  10   7 1596.00 176.453   1
  10 -10  20 2469.62 229.259  -2
  22  10   8 2469.62 229.259   1
  22  10   9 1937.00 163.629   1
  22  10  10 834.110 158.565   1
  14 -10  19 744.675 184.310  -2
  22  10  11 744.675 184.310   1
  22  12  -8 551.436 227.636   1
  -6 -12  21 2270.00 305.469  -2
  22  12  -7 2270.00 305.469   1
  22  12  -6 293.934 231.409   1
  -4 -12  21 3149.83 304.318  -2
  22  12  -5 3149.83 304.318   1
   0 -12  20 2899.49 237.888  -2
  22  12  -2 2899.49 237.888   1
  22  12  -1 3346.13 198.265   1
   2 -12  20 7199.82 269.603  -2
  22  12   0 7199.82 269.603   1
  22  12   1 1405.82 175.981   1
   4 -12  20 929.027 225.414  -2
  22  12   2 929.027 225.414   1
  22  12   3 571.378 166.395   1
   6 -12  20 2168.31 223.779  -2
  22  12   4 2168.31 223.779   1
  22  12   5 208.060 136.235   1
   8 -12  20 992.545 188.434  -2
  22  12   6 992.545 188.434   1
  22  12   7 57.8690 130.742   1
  -8 -14  21 743.929 164.537  -2
  22  14  -9 743.929 164.537   1
  22  14  -8 640.722 120.843   1
  -6 -14  21 91.1684 161.994  -2
  22  14  -7 91.1684 161.994   1
  22  14  -6-23.4491 117.102   1
  -4 -14  21 1033.88 167.598  -2
  22  14  -5 1033.88 167.598   1
  22  14  -4 161.676 119.528   1
  22  14  -3 119.769 122.686   1
   0 -14  20 1896.85 178.385  -2
  22  14  -2 1896.85 178.385   1
  22  14  -1 907.660 123.360   1
   2 -14  20 336.793 162.558  -2
  22  14   0 336.793 162.558   1
  22  14   1 105.918 111.820   1
  23   1 -33 61.1699 174.195   1
  23   1 -32-10.7379 135.428   1
  23  -1 -31 175.140 149.368   1
  23  -1 -30 1.52544 153.718   1
  23  -1 -29 253.913 169.520   1
  23   1 -28 115.961 173.116   1
 -27  -1  23 737.011 238.886  -2
  23   1 -27 737.011 238.886   1
  23  -1 -26 620.500 194.246   1
 -25   1  23 2968.63 265.556  -2
  23  -1 -25 2968.63 265.556   1
  23   1 -24 294.148 196.405   1
 -23   1  23 3534.61 275.584  -2
  23  -1 -23 3534.61 275.584   1
  23   1 -22 867.275 196.724   1
 -21  -1  23 971.543 247.985  -2
  23   1 -21 971.543 247.985   1
  23   1 -20 68.7836 188.534   1
 -19  -1  23 1558.03 236.758  -2
  23   1 -19 1558.03 236.758   1
 -23  -1  18 1836.14 108.087   1
 -23   1  17-29.9224 95.5075   1
  23   1 -16 3017.62 155.751   1
 -15  -1  22 2997.76 228.417  -2
  23   1 -16 2997.76 228.417   1
  23   1 -15 162.589 101.934   1
 -13  -1  22 4540.27 147.422  -2
  23   1 -14 4540.27 147.422   1
 -23   1  13 2887.45 112.083   1
 -11  -1  22 641.971 130.052  -2
  23   1 -12 641.971 130.052   1
 -23   1  11 1954.75 105.011   1
  -9  -1  22 4716.63 170.562  -2
  23   1 -10 4716.63 170.562   1
  23   1  -9 394.718 129.528   1
  -7  -1  22 4323.87 193.296  -2
  23   1  -8 4323.87 193.296   1
  23   1  -7 6191.76 165.842   1
  -5  -1  22 2507.05 132.130  -2
  23   1  -6 2507.05 132.130   1
  23  -1  -5 3007.33 120.196   1
  -3  -1  21 10701.2 293.654  -2
  23   1  -5 10701.2 293.654   1
  23   1  -4 165.746 90.6692   1
  -1  -1  21 859.649 122.508  -2
  23   1  -3 859.649 122.508   1
  23   1  -2 3030.64 88.4487   1
   1  -1  21 6390.37 112.595  -2
  23   1  -1 6390.37 112.595   1
 -23  -1   0 220.032 63.2437   1
   3  -1  21 1259.65 89.3983  -2
  23   1   1 1259.65 89.3983   1
  23   1   2 2328.43 71.8450   1
   5  -1  21 1256.00 87.6041  -2
  23   1   3 1256.00 87.6041   1
  23   1   4 88.6170 63.0901   1
   7  -1  21 2212.09 91.5163  -2
  23   1   5 2212.09 91.5163   1
 -23  -1  -6 299.729 80.3346   1
  -9   1 -21 11447.4 123.959  -2
 -23  -1  -7 11447.4 123.959   1
 -23  -1  -8 535.625 113.901   1
  11  -1  20 5157.22 152.353  -2
  23   1   8 5157.22 152.353   1
 -23  -1  -9 24197.2 129.951   1
  13   1  20 8427.97 123.620  -2
  23  -1  10 8427.97 123.620   1
 -23  -1 -11 762.827 81.1602   1
 -15   1 -20 2279.23 110.608  -2
 -23  -1 -12 2279.23 110.608   1
  23  -1  13 5597.37 101.258   1
  17   1  20 11375.5 149.989  -2
  23  -1  14 11375.5 149.989   1
  23  -1  15 1192.10 89.1833   1
  19   1  20 505.511 114.316  -2
  23  -1  16 505.511 114.316   1
  23  -1  17 1336.29 90.3863   1
  21  -1  20 2195.33 118.824  -2
  23   1  18 2195.33 118.824   1
  23   1  19 77.6955 81.2173   1
  23   1  20 1193.77 108.613  -2
  23  -1  20 1193.77 108.613   1
  23  -1  21 212.657 94.0399   1
  25   1  19 436.015 170.559  -2
  23  -1  21 436.015 170.559   1
  23   1  22 631.848 73.7138   1
  27   1  19 191.353 103.824  -2
  23  -1  23 191.353 103.824   1
  23   1  24 644.828 82.4127   1
  29  -1  19 2123.73 123.381  -2
  23   1  25 2123.73 123.381   1
  23   1  26 1681.70 181.009   1
  23   3 -33 61.2758 159.547   1
  23   3 -32-54.4857 187.227   1
  23   3 -31 32.3733 203.429   1
  23   3 -30 153.692 231.839   1
  23   3 -29 20.8842 232.306   1
  23   3 -28 230.372 253.653   1
 -27   3  23 215.684 218.852  -2
  23  -3 -27 215.684 218.852   1
  23  -3 -26 1751.19 182.050   1
 -25   3  23 383.981 226.235  -2
  23  -3 -25 383.981 226.235   1
  23  -3 -24 34.3538 170.894   1
 -23  -3  23 502.295 227.067  -2
  23   3 -23 502.295 227.067   1
  23  -3 -22 346.129 171.710   1
 -21  -3  23 1732.99 393.484  -2
  23   3 -21 1732.99 393.484   1
  23   3 -20 1955.09 316.853   1
 -19  -3  23 2925.43 369.613  -2
  23   3 -19 2925.43 369.613   1
  23  -3 -18 169.793 152.482   1
  23   3 -17 1758.44 157.517   1
  23   3 -16 2638.90 191.637   1
 -15  -3  22 2531.12 349.158  -2
  23   3 -16 2531.12 349.158   1
  23   3 -15 499.921 139.824   1
 -13   3  22 4473.89 198.826  -2
  23  -3 -14 4473.89 198.826   1
  23  -3 -13 992.552 139.334   1
 -11  -3  22 536.477 150.322  -2
  23   3 -12 536.477 150.322   1
  23  -3 -11 100.543 107.943   1
  -9  -3  22 5045.58 180.972  -2
  23   3 -10 5045.58 180.972   1
 -23  -3   9 1248.92 125.386   1
   7   3 -22 5233.28 185.556  -2
 -23  -3   8 5233.28 185.556   1
 -23  -3   7 997.454 122.698   1
   5   3 -22 5591.00 179.586  -2
 -23  -3   6 5591.00 179.586   1
  23   3  -5 5319.03 126.572   1
  -3  -3  21 4635.66 301.115  -2
  23   3  -5 4635.66 301.115   1
  23   3  -4 2013.67 99.1553   1
  -1  -3  21 1978.34 106.992  -2
  23   3  -3 1978.34 106.992   1
  23   3  -2 140.371 77.4698   1
   1  -3  21 1234.69 101.963  -2
  23   3  -1 1234.69 101.963   1
 -23  -3   0 1938.50 72.2562   1
   3  -3  21 877.765 95.4942  -2
  23   3   1 877.765 95.4942   1
 -23  -3  -2 3266.38 80.3980   1
  -5   3 -21 2029.24 100.597  -2
 -23  -3  -3 2029.24 100.597   1
  23   3   4 330.640 71.2879   1
  -7   3 -21 1023.63 99.2781  -2
 -23  -3  -5 1023.63 99.2781   1
 -23  -3  -6 4173.88 94.0654   1
  -9   3 -21 9685.74 144.823  -2
 -23  -3  -7 9685.74 144.823   1
 -23  -3  -8 2528.78 164.953   1
  11   3  20 3933.08 132.016  -2
  23  -3   8 3933.08 132.016   1
 -23  -3  -9 5088.71 96.8163   1
 -13   3 -20 27921.1 153.402  -2
 -23  -3 -10 27921.1 153.402   1
 -23  -3 -11 5500.91 95.0928   1
  15   3  20 10881.1 138.622  -2
  23  -3  12 10881.1 138.622   1
  23  -3  13 338.143 80.2278   1
  17   3  20 1542.71 111.663  -2
  23  -3  14 1542.71 111.663   1
  23  -3  15 82.2974 81.1241   1
  19   3  20 1661.91 113.141  -2
  23  -3  16 1661.91 113.141   1
  23   3  17 3007.44 109.525   1
  21   3  20 967.233 131.849  -2
  23  -3  18 967.233 131.849   1
  23  -3  19 1230.55 97.4290   1
  23  -3  20 757.887 122.107  -2
  23   3  20 757.887 122.107   1
  23   3  21 352.888 115.979   1
  25  -3  19 506.151 175.342  -2
  23   3  21 506.151 175.342   1
  23   3  22 439.424 96.7400   1
  27  -3  19 1992.00 163.636  -2
  23   3  23 1992.00 163.636   1
  23   3  24 160.685 108.961   1
  29  -3  19 110.333 127.643  -2
  23   3  25 110.333 127.643   1
  23   5 -32-61.3228 159.108   1
  23   5 -31 260.910 180.505   1
  23   5 -30-66.3583 203.591   1
  23   5 -29 745.713 220.514   1
  23   5 -28 123.901 237.768   1
 -27  -5  23 91.5848 327.157  -2
  23   5 -27 91.5848 327.157   1
  23   5 -26 195.989 270.373   1
 -25  -5  23 690.420 387.553  -2
  23   5 -25 690.420 387.553   1
  23   5 -24 49.5878 302.864   1
 -23  -5  23 5917.20 446.806  -2
  23   5 -23 5917.20 446.806   1
  23   5 -22 386.387 302.877   1
 -21  -5  23 1380.38 396.337  -2
  23   5 -21 1380.38 396.337   1
  23   5 -20 541.756 300.265   1
 -19  -5  23 1678.80 374.230  -2
  23   5 -19 1678.80 374.230   1
  23   5 -18 744.599 274.667   1
  23   5 -17 135.452 288.519   1
 -15   5  22 1286.41 255.636  -2
  23  -5 -16 1286.41 255.636   1
  23   5 -15 167.054 141.384   1
 -13  -5  22 273.904 185.997  -2
  23   5 -14 273.904 185.997   1
  23   5 -13 531.014 145.267   1
 -11  -5  22 804.861 189.090  -2
  23   5 -12 804.861 189.090   1
  23   5 -11 263.704 169.191   1
  -9  -5  22 6857.12 284.766  -2
  23   5 -10 6857.12 284.766   1
  23   5  -9 123.380 169.987   1
  -7  -5  22 1639.80 234.861  -2
  23   5  -8 1639.80 234.861   1
  23   5  -7 3342.08 188.945   1
  -5  -5  22 54.5985 89.8418  -2
  23   5  -6 54.5985 89.8418   1
 -23  -5   5 1103.46 187.743   1
  -3  -5  21 2061.92 185.285  -2
  23   5  -5 2061.92 185.285   1
 -23  -5   4 5429.34 133.377   1
   1   5 -21 1672.32 146.669  -2
 -23  -5   3 1672.32 146.669   1
  23   5  -2 389.822 91.3613   1
   1  -5  21 5277.84 139.149  -2
  23   5  -1 5277.84 139.149   1
  23   5   0 2142.43 100.048   1
   3  -5  21 634.636 112.075  -2
  23   5   1 634.636 112.075   1
  23   5   2 1065.19 84.9338   1
   5  -5  21 1145.92 118.301  -2
  23   5   3 1145.92 118.301   1
  23   5   4 38.4612 84.2624   1
   7  -5  21 2689.75 137.134  -2
  23   5   5 2689.75 137.134   1
  23   5   6 1042.78 102.739   1
   9  -5  21 5528.61 169.425  -2
  23   5   7 5528.61 169.425   1
  23   5   8 757.752 204.788   1
  11   5  20 861.291 184.463  -2
  23  -5   8 861.291 184.463   1
  23   5   9 5657.78 136.888   1
  13  -5  20 2902.19 163.968  -2
  23   5  10 2902.19 163.968   1
  23   5  11 487.312 115.361   1
  15   5  20 133.645 150.340  -2
  23  -5  12 133.645 150.340   1
  23  -5  13 2181.22 128.941   1
  17   5  20 3448.40 170.359  -2
  23  -5  14 3448.40 170.359   1
  23   5  15 4994.58 116.571   1
  19  -5  20 602.835 133.321  -2
  23   5  16 602.835 133.321   1
  23   5  17 115.199 100.259   1
  21  -5  20 995.133 128.238  -2
  23   5  18 995.133 128.238   1
  23   5  19 132.718 98.8116   1
  23  -5  20 517.331 122.802  -2
  23   5  20 517.331 122.802   1
  25  -5  19 3107.47 158.317  -2
  23   5  21 3107.47 158.317   1
  23   5  22 140.404 108.123   1
  27  -5  19 442.625 163.833  -2
  23   5  23 442.625 163.833   1
  23   5  24 682.121 118.720   1
  23   7 -30 191.980 154.619   1
  23   7 -29 51.9999 179.404   1
  23   7 -28 198.827 201.459   1
 -27  -7  23 167.224 296.734  -2
  23   7 -27 167.224 296.734   1
  23   7 -26 1562.83 253.408   1
 -25  -7  23 132.571 332.651  -2
  23   7 -25 132.571 332.651   1
  23   7 -24-8.04913 260.641   1
 -23  -7  23 259.475 337.147  -2
  23   7 -23 259.475 337.147   1
  23   7 -22 165.853 269.646   1
 -21  -7  23 828.852 370.124  -2
  23   7 -21 828.852 370.124   1
  23   7 -20 154.511 282.194   1
 -19  -7  23 1670.23 375.074  -2
  23   7 -19 1670.23 375.074   1
  23   7 -18 1567.65 288.854   1
  23   7 -17 110.108 283.268   1
 -15  -7  22 1729.55 366.349  -2
  23   7 -16 1729.55 366.349   1
  23   7 -15 120.392 284.978   1
 -13  -7  22 2082.35 390.317  -2
  23   7 -14 2082.35 390.317   1
  23   7 -13 1007.18 297.257   1
 -11  -7  22 442.053 351.138  -2
  23   7 -12 442.053 351.138   1
  23   7 -11 546.755 284.702   1
  -9  -7  22 3960.46 269.229  -2
  23   7 -10 3960.46 269.229   1
  23   7  -9 769.168 189.238   1
  -7  -7  22 5346.80 279.861  -2
  23   7  -8 5346.80 279.861   1
  23   7  -7 3259.13 201.641   1
  -5  -7  22 94.6585 76.0297  -2
  23   7  -6 94.6585 76.0297   1
  23   7  -5-43.1793 230.539   1
  -3  -7  21 425.759 184.509  -2
  23   7  -5 425.759 184.509   1
  23   7  -4 3008.75 136.401   1
  -1  -7  21 1535.37 163.729  -2
  23   7  -3 1535.37 163.729   1
  23   7  -2 3766.05 136.641   1
   1  -7  21 4157.61 178.065  -2
  23   7  -1 4157.61 178.065   1
  23   7   0 43.6000 98.7281   1
   3  -7  21 1050.72 136.536  -2
  23   7   1 1050.72 136.536   1
  23   7   2 414.092 102.012   1
   5  -7  21 2382.49 160.152  -2
  23   7   3 2382.49 160.152   1
  23   7   4 26.4672 100.609   1
   7  -7  21 14234.5 186.431  -2
  23   7   5 14234.5 186.431   1
  23   7   6 370.424 114.624   1
   9   7  21 5030.84 170.015  -2
  23  -7   7 5030.84 170.015   1
  23   7   8 3592.58 222.133   1
  11   7  20 3663.29 196.860  -2
  23  -7   8 3663.29 196.860   1
  23   7   9 542.883 117.248   1
  13  -7  20 12048.8 196.956  -2
  23   7  10 12048.8 196.956   1
  23  -7  11 379.384 118.122   1
  15  -7  20 8116.40 188.712  -2
  23   7  12 8116.40 188.712   1
  23   7  13 2162.21 134.666   1
  17  -7  20 2077.96 168.857  -2
  23   7  14 2077.96 168.857   1
  23   7  15 13.5443 110.492   1
  19  -7  20 326.874 145.166  -2
  23   7  16 326.874 145.166   1
  23   7  17 475.652 102.484   1
  21  -7  20 311.222 192.886  -2
  23   7  18 311.222 192.886   1
  23   7  19 62.8532 138.188   1
  23  -7  20 1166.05 184.845  -2
  23   7  20 1166.05 184.845   1
  25  -7  19 1758.45 169.645  -2
  23   7  21 1758.45 169.645   1
  23   7  22 512.269 117.180   1
  23   9 -26-17.1534 165.093   1
 -25  -9  23 583.592 252.160  -2
  23   9 -25 583.592 252.160   1
  23   9 -24-32.2536 202.772   1
 -23  -9  23 25.7920 105.009  -2
  23   9 -23 25.7920 105.009   1
  23   9 -22 123.093 233.922   1
 -21  -9  23 300.275 305.987  -2
  23   9 -21 300.275 305.987   1
  23   9 -20 22.8138 244.708   1
 -19  -9  23 340.118 323.336  -2
  23   9 -19 340.118 323.336   1
  23   9 -18 529.482 269.799   1
  23   9 -17 57.8044 251.101   1
 -15  -9  22 984.416 360.082  -2
  23   9 -16 984.416 360.082   1
  23   9 -15 109.958 273.658   1
 -13  -9  22 693.263 369.910  -2
  23   9 -14 693.263 369.910   1
  23   9 -13 1186.37 295.111   1
 -11  -9  22 2353.65 390.975  -2
  23   9 -12 2353.65 390.975   1
  23   9 -11 406.400 275.524   1
  -9  -9  22 536.964 381.477  -2
  23   9 -10 536.964 381.477   1
  23   9  -9 605.614 284.893   1
  -7  -9  22 703.130 384.646  -2
  23   9  -8 703.130 384.646   1
  23   9  -7 6346.90 324.070   1
  -5  -9  22 495.616 369.282  -2
  23   9  -6 495.616 369.282   1
  23   9  -5 1802.31 280.084   1
  23   9  -4 642.299 279.829   1
  -1  -9  21 2875.60 367.823  -2
  23   9  -3 2875.60 367.823   1
  23   9  -2 178.922 254.154   1
   1  -9  21 2839.72 365.029  -2
  23   9  -1 2839.72 365.029   1
  23   9   0 91.8823 155.080   1
   3  -9  21 1103.98 212.981  -2
  23   9   1 1103.98 212.981   1
  23   9   2 2833.50 167.947   1
   5  -9  21 190.521 259.953  -2
  23   9   3 190.521 259.953   1
  23   9   4 223.382 187.859   1
   7  -9  21 202.659 254.485  -2
  23   9   5 202.659 254.485   1
  23   9   6 329.773 116.609   1
   9  -9  21 2564.87 169.335  -2
  23   9   7 2564.87 169.335   1
  23   9   8 2548.34 199.478   1
  11  -9  20 3307.19 220.533  -2
  23   9   8 3307.19 220.533   1
  23   9   9 3947.29 132.241   1
  13  -9  20 455.955 151.154  -2
  23   9  10 455.955 151.154   1
  23   9  11 4570.80 129.888   1
  15  -9  20 1417.28 144.913  -2
  23   9  12 1417.28 144.913   1
  23   9  13 1027.84 104.794   1
  17  -9  20 1353.29 198.238  -2
  23   9  14 1353.29 198.238   1
  23   9  15 4090.61 162.219   1
  19  -9  20 810.385 181.002  -2
  23   9  16 810.385 181.002   1
  23   9  17 420.559 126.366   1
  21  -9  20 1794.53 164.657  -2
  23   9  18 1794.53 164.657   1
 -19 -11  23 407.149 250.215  -2
  23  11 -19 407.149 250.215   1
  23  11 -18 108.290 197.067   1
  23  11 -17 46.1583 204.238   1
 -15 -11  22 638.013 285.015  -2
  23  11 -16 638.013 285.015   1
  23  11 -15 220.141 221.993   1
 -13 -11  22 132.804 292.770  -2
  23  11 -14 132.804 292.770   1
  23  11 -13-116.117 226.815   1
 -11 -11  22 130.884 101.278  -2
  23  11 -12 130.884 101.278   1
  23  11 -11 235.848 238.808   1
  -9 -11  22 4084.67 343.742  -2
  23  11 -10 4084.67 343.742   1
  23  11  -9 771.529 252.756   1
  -7 -11  22 800.640 338.430  -2
  23  11  -8 800.640 338.430   1
  23  11  -7 7.87639 237.083   1
  -5 -11  22 3060.61 349.702  -2
  23  11  -6 3060.61 349.702   1
  23  11  -5 1009.55 259.827   1
  23  11  -4 377.855 239.358   1
  -1 -11  21 555.551 325.774  -2
  23  11  -3 555.551 325.774   1
  23  11  -2 1099.43 151.474   1
   1 -11  21 4424.41 276.325  -2
  23  11  -1 4424.41 276.325   1
  23  11   0 105.399 184.670   1
   3 -11  21 1931.02 253.582  -2
  23  11   1 1931.02 253.582   1
  23  11   2 284.725 178.457   1
   5 -11  21 2058.84 242.969  -2
  23  11   3 2058.84 242.969   1
  23  11   4 86.2872 165.658   1
   7 -11  21 4123.63 237.974  -2
  23  11   5 4123.63 237.974   1
  23  11   6 329.352 160.953   1
   9 -11  21 702.137 200.023  -2
  23  11   7 702.137 200.023   1
  23  11   8 272.393 133.945   1
  23  11   9-19.6351 136.249   1
  -5 -13  22 621.046 187.905  -2
  23  13  -6 621.046 187.905   1
  23  13  -5 638.608 151.379   1
  23  13  -4 1031.03 148.708   1
  -1 -13  21 875.871 201.974  -2
  23  13  -3 875.871 201.974   1
  23  13  -2 77.4946 140.345   1
   1 -13  21 1150.35 194.614  -2
  23  13  -1 1150.35 194.614   1
  23  13   0 561.535 144.329   1
   3 -13  21 149.044 188.181  -2
  23  13   1 149.044 188.181   1
  23  13   2 1396.21 135.410   1
   5 -13  21 808.925 178.407  -2
  23  13   3 808.925 178.407   1
  23  13   4 6.71432 123.483   1
  24   0 -32 45.6955 180.340   1
  24   0 -30 477.697 226.717   1
 -28   0  24 175.329 303.865  -2
  24   0 -28 175.329 303.865   1
 -26   0  24-22.1205 339.029  -2
  24   0 -26-22.1205 339.029   1
 -24   0  24 831.347 347.648  -2
  24   0 -24 831.347 347.648   1
 -22   0  24 1147.79 354.205  -2
  24   0 -22 1147.79 354.205   1
 -20   0  24 1250.03 357.781  -2
  24   0 -20 1250.03 357.781   1
 -24   0  18 5022.97 176.664   1
  24   0 -16 135.456 129.490   1
 -24   0  14 253.207 130.208   1
  24   0 -12 566.066 164.523   1
  24   0 -10 2419.27 171.462   1
  24   0  -8 1028.85 157.530   1
  24   0  -6 407.642 232.784   1
  -4   0  22 1179.23 250.562  -2
  24   0  -6 1179.23 250.562   1
  -2   0  22 3237.64 145.847  -2
  24   0  -4 3237.64 145.847   1
   0   0  22 6281.78 168.354  -2
  24   0  -2 6281.78 168.354   1
   2   0  22 9268.85 158.637  -2
  24   0   0 9268.85 158.637   1
  -4   0 -22 13268.3 170.822  -2
 -24   0  -2 13268.3 170.822   1
   6   0  22 10285.8 159.789  -2
  24   0   4 10285.8 159.789   1
  -8   0 -22 24721.4 210.100  -2
 -24   0  -6 24721.4 210.100   1
 -24   0  -8 3537.61 122.116   1
 -24   0 -10 1898.95 117.619   1
  24   0  12 8629.94 155.623   1
  24   0  14 194.722 122.822   1
  24   0  16 2883.45 135.088   1
  24   0  18 6334.04 141.038   1
  24   0  20 10583.1 214.517   1
  24   0  20 14075.7 247.649  -2
  24   0  20 14075.7 247.649   1
  26   0  20 2944.69 137.107  -2
  24   0  22 2944.69 137.107   1
  28   0  20 1880.91 274.484  -2
  24   0  24 1880.91 274.484   1
  24   2 -33 43.4092 157.461   1
  24   2 -32 108.293 181.431   1
  24   2 -31 190.159 202.601   1
  24   2 -30-15.6713 213.741   1
  24  -2 -29 204.136 148.863   1
  24  -2 -28 161.395 208.129   1
 -28  -2  24 401.590 320.764  -2
  24   2 -28 401.590 320.764   1
  24   2 -27 335.091 163.393   1
 -26  -2  24 318.709 224.933  -2
  24   2 -26 318.709 224.933   1
  24   2 -25-15.1540 174.802   1
 -24  -2  24 40.5659 229.932  -2
  24   2 -24 40.5659 229.932   1
  24  -2 -23 65.2039 177.723   1
 -22   2  24 356.817 238.048  -2
  24  -2 -22 356.817 238.048   1
  24  -2 -21 803.180 181.329   1
 -20  -2  24 500.945 231.817  -2
  24   2 -20 500.945 231.817   1
  24  -2 -19 1716.26 180.918   1
  24  -2 -18 220.655 179.034   1
  24   2 -17 4027.20 287.100   1
 -16  -2  23 9500.56 253.929  -2
  24   2 -17 9500.56 253.929   1
  24   2 -16 321.860 120.111   1
 -14  -2  23 9776.76 232.743  -2
  24   2 -15 9776.76 232.743   1
  24  -2 -14 527.572 142.600   1
 -12  -2  23 1216.80 188.603  -2
  24   2 -13 1216.80 188.603   1
  24  -2 -12 3.60525 132.665   1
 -10  -2  23 9587.02 242.328  -2
  24   2 -11 9587.02 242.328   1
 -24  -2  10 151.584 118.245   1
  -8  -2  23 3905.07 135.053  -2
  24   2  -9 3905.07 135.053   1
  24   2  -8 153.611 91.5120   1
  -6  -2  23 3568.64 134.431  -2
  24   2  -7 3568.64 134.431   1
  24   2  -6 128.959 103.258   1
  -4  -2  22 1771.11 282.096  -2
  24   2  -6 1771.11 282.096   1
 -24  -2   5 4740.67 113.976   1
 -24  -2   4 4563.32 346.649   1
  -2  -2  22 4318.86 142.080  -2
  24   2  -4 4318.86 142.080   1
  24   2  -3 150.985 91.1264   1
   0  -2  22 3400.11 105.223  -2
  24   2  -2 3400.11 105.223   1
  24   2  -1 644.085 67.8301   1
   2  -2  22 355.730 88.1050  -2
  24   2   0 355.730 88.1050   1
 -24  -2  -1 1960.90 74.8933   1
  -4   2 -22 3931.69 106.779  -2
 -24  -2  -2 3931.69 106.779   1
 -24  -2  -3 14931.0 110.741   1
  -6   2 -22 1352.35 102.214  -2
 -24  -2  -4 1352.35 102.214   1
 -24  -2  -5 12680.5 117.444   1
  -8   2 -22 1704.11 119.202  -2
 -24  -2  -6 1704.11 119.202   1
 -24  -2  -7 177.682 131.535   1
  10  -2  21 1269.92 142.061  -2
  24   2   7 1269.92 142.061   1
 -24  -2  -8 1139.64 87.1233   1
 -12   2 -21 6414.03 117.858  -2
 -24  -2  -9 6414.03 117.858   1
 -24  -2 -10 1501.46 81.2306   1
  14   2  21 1100.93 110.785  -2
  24  -2  11 1100.93 110.785   1
  24  -2  12 443.107 83.1217   1
  16   2  21 3153.50 119.690  -2
  24  -2  13 3153.50 119.690   1
  24  -2  14 181.494 84.0859   1
  18   2  21 13806.8 156.187  -2
  24  -2  15 13806.8 156.187   1
  24  -2  16 219.664 85.4452   1
  20  -2  21 1884.55 115.188  -2
  24   2  17 1884.55 115.188   1
  24   2  18 2013.16 85.3279   1
  22   2  21 10001.9 129.121  -2
  24  -2  19 10001.9 129.121   1
  24   2  20 45.9956 87.2354   1
  24   2  20 8.93785 179.573  -2
  24  -2  20 8.93785 179.573   1
  24  -2  21 20.6708 83.4731   1
  26  -2  20 662.537 113.861  -2
  24   2  22 662.537 113.861   1
  24   2  23 1448.70 93.3505   1
  28  -2  20 736.181 134.388  -2
  24   2  24 736.181 134.388   1
  24   2  25 2171.20 97.7957   1
  24   4 -32 145.278 161.710   1
  24   4 -31 161.807 183.488   1
  24   4 -30 295.157 209.981   1
  24   4 -29-33.0250 226.030   1
 -28  -4  24 117.319 316.806  -2
  24   4 -28 117.319 316.806   1
  24   4 -27 216.087 259.608   1
 -26  -4  24 12753.9 459.357  -2
  24   4 -26 12753.9 459.357   1
  24   4 -25 2.79942 277.166   1
 -24  -4  24 168.582 360.489  -2
  24   4 -24 168.582 360.489   1
  24   4 -23 153.451 289.775   1
 -22  -4  24 257.193 380.555  -2
  24   4 -22 257.193 380.555   1
  24   4 -21-4.67356 278.955   1
 -20  -4  24 1380.89 383.651  -2
  24   4 -20 1380.89 383.651   1
  24   4 -19 450.517 283.584   1
  24   4 -18 144.202 290.869   1
 -16  -4  23 3366.44 390.078  -2
  24   4 -17 3366.44 390.078   1
  24  -4 -16 591.176 151.544   1
 -14   4  23 328.240 185.696  -2
  24  -4 -15 328.240 185.696   1
  24  -4 -14 190.792 138.721   1
 -12   4  23 434.122 183.276  -2
  24  -4 -13 434.122 183.276   1
  24   4 -12 493.470 174.199   1
 -10  -4  23 396.451 220.333  -2
  24   4 -11 396.451 220.333   1
  24   4 -10 52.5919 168.761   1
  -8  -4  23 1897.94 239.583  -2
  24   4  -9 1897.94 239.583   1
  24   4  -8 1647.31 184.064   1
  -6  -4  23 3797.94 206.843  -2
  24   4  -7 3797.94 206.843   1
 -24  -4   6 1332.20 183.161   1
  -4  -4  22 2014.93 310.944  -2
  24   4  -6 2014.93 310.944   1
  24   4  -5 167.104 87.9892   1
  -2  -4  22 1959.35 123.217  -2
  24   4  -4 1959.35 123.217   1
 -24  -4   3 233.122 89.8354   1
   0  -4  22 16491.6 149.292  -2
  24   4  -2 16491.6 149.292   1
  24   4  -1 470.322 79.8260   1
   2  -4  22 6193.84 118.255  -2
  24   4   0 6193.84 118.255   1
  24   4   1 382.042 73.1781   1
   4  -4  22 5249.47 116.843  -2
  24   4   2 5249.47 116.843   1
  24   4   3 1049.93 76.4327   1
  -6   4 -22 8195.85 126.695  -2
 -24  -4  -4 8195.85 126.695   1
 -24  -4  -5 712.867 85.6307   1
   8  -4  22 30714.5 175.761  -2
  24   4   6 30714.5 175.761   1
 -24  -4  -7 869.761 113.338   1
  10  -4  21 1202.55 188.272  -2
  24   4   7 1202.55 188.272   1
 -24  -4  -8 3856.59 118.302   1
  12   4  21 3858.49 165.449  -2
  24  -4   9 3858.49 165.449   1
  24   4  10 1918.56 123.861   1
  14   4  21 1014.03 157.941  -2
  24  -4  11 1014.03 157.941   1
  24  -4  12 1784.09 122.761   1
  16   4  21 2556.58 144.135  -2
  24  -4  13 2556.58 144.135   1
  24   4  14 180.366 102.185   1
  18  -4  21 802.194 139.866  -2
  24   4  15 802.194 139.866   1
  24   4  16 4987.15 119.331   1
  20   4  21 107.516 131.367  -2
  24  -4  17 107.516 131.367   1
  24   4  18 212.879 95.7508   1
  22  -4  21 424.861 122.798  -2
  24   4  19 424.861 122.798   1
  24   4  20 1470.31 158.649   1
  24  -4  20 2610.43 170.808  -2
  24   4  20 2610.43 170.808   1
  24   4  21 159.121 87.4880   1
  26  -4  20 4015.62 161.500  -2
  24   4  22 4015.62 161.500   1
  24   4  23 129.982 99.1732   1
  28  -4  20 2147.69 155.609  -2
  24   4  24 2147.69 155.609   1
  24   6 -30 153.276 168.186   1
  24   6 -29 42.1481 187.802   1
 -28  -6  24 154.068 280.275  -2
  24   6 -28 154.068 280.275   1
  24   6 -27 547.001 240.846   1
 -26  -6  24 328.774 323.368  -2
  24   6 -26 328.774 323.368   1
  24   6 -25 30.5514 254.052   1
 -24  -6  24 66.0481 135.929  -2
  24   6 -24 66.0481 135.929   1
  24   6 -23 69.9443 281.134   1
 -22  -6  24 4850.61 400.394  -2
  24   6 -22 4850.61 400.394   1
  24   6 -21 1015.23 301.652   1
 -20  -6  24 2405.36 396.570  -2
  24   6 -20 2405.36 396.570   1
  24   6 -19 193.006 278.881   1
  24   6 -18 307.606 295.562   1
 -16  -6  23 2811.54 383.620  -2
  24   6 -17 2811.54 383.620   1
  24   6 -16 1236.03 277.482   1
 -14  -6  23 1666.86 375.168  -2
  24   6 -15 1666.86 375.168   1
  24   6 -14 756.075 273.314   1
 -12  -6  23 994.313 365.085  -2
  24   6 -13 994.313 365.085   1
  24   6 -12 131.889 284.837   1
 -10  -6  23 4691.31 276.818  -2
  24   6 -11 4691.31 276.818   1
  24   6 -10 143.709 121.486   1
  -8  -6  23 759.921 161.486  -2
  24   6  -9 759.921 161.486   1
  24   6  -8 1589.68 129.545   1
  -6  -6  23 937.325 161.469  -2
  24   6  -7 937.325 161.469   1
  24   6  -6 83.2552 222.582   1
  -4  -6  22 404.982 187.610  -2
  24   6  -6 404.982 187.610   1
  24   6  -5 581.911 121.596   1
  -2  -6  22 1369.67 164.980  -2
  24   6  -4 1369.67 164.980   1
  24   6  -3 986.181 127.348   1
   0  -6  22 11769.1 175.535  -2
  24   6  -2 11769.1 175.535   1
  24   6  -1 480.501 105.283   1
   2  -6  22 1283.69 138.776  -2
  24   6   0 1283.69 138.776   1
  24   6   1 406.745 100.875   1
   4  -6  22 1579.75 141.586  -2
  24   6   2 1579.75 141.586   1
  24   6   3 4631.22 117.662   1
   6  -6  22 49.0403 73.6544  -2
  24   6   4 49.0403 73.6544   1
  24   6   5 2927.05 112.037   1
   8   6  22 2975.64 161.778  -2
  24  -6   6 2975.64 161.778   1
  24   6   7 505.419 198.933   1
  10  -6  21 584.435 178.342  -2
  24   6   7 584.435 178.342   1
  24   6   8 235.803 114.039   1
  12  -6  21 1530.86 154.568  -2
  24   6   9 1530.86 154.568   1
  24   6  10 5085.82 136.017   1
  14   6  21 4054.31 171.463  -2
  24  -6  11 4054.31 171.463   1
  24   6  12 1641.60 123.185   1
  16   6  21 3501.27 169.292  -2
  24  -6  13 3501.27 169.292   1
  24  -6  14 760.283 113.685   1
  18  -6  21 5856.12 175.632  -2
  24   6  15 5856.12 175.632   1
  24   6  16 9455.96 158.991   1
  20  -6  21 3776.15 169.123  -2
  24   6  17 3776.15 169.123   1
  24   6  18 1799.05 113.637   1
  22  -6  21 8404.10 241.682  -2
  24   6  19 8404.10 241.682   1
  24  -6  20 636.081 179.387  -2
  24   6  20 636.081 179.387   1
  24   6  21 289.112 125.715   1
  26  -6  20 2261.80 159.721  -2
  24   6  22 2261.80 159.721   1
  24   6  23 1061.12 106.973   1
 -28  -8  24 29.9235 108.029  -2
  24   8 -28 29.9235 108.029   1
  24   8 -27 36.3775 172.673   1
 -26  -8  24 311.056 255.950  -2
  24   8 -26 311.056 255.950   1
  24   8 -25 40.8929 215.722   1
 -24  -8  24 154.885 296.260  -2
  24   8 -24 154.885 296.260   1
  24   8 -23 756.744 243.797   1
 -22  -8  24 237.244 318.221  -2
  24   8 -22 237.244 318.221   1
  24   8 -21 13.4369 250.925   1
 -20  -8  24 43.9877 154.811  -2
  24   8 -20 43.9877 154.811   1
  24   8 -19 80.0295 264.671   1
  24   8 -18 206.201 280.884   1
 -16  -8  23 3376.39 382.701  -2
  24   8 -17 3376.39 382.701   1
  24   8 -16 195.286 276.127   1
 -14  -8  23 356.064 378.910  -2
  24   8 -15 356.064 378.910   1
  24   8 -14 1839.58 303.569   1
 -12  -8  23 805.067 381.288  -2
  24   8 -13 805.067 381.288   1
  24   8 -12 215.935 277.468   1
 -10  -8  23 1273.02 382.439  -2
  24   8 -11 1273.02 382.439   1
  24   8 -10 195.816 290.112   1
  -8  -8  23 1836.57 385.807  -2
  24   8  -9 1836.57 385.807   1
  24   8  -8 996.421 288.033   1
  -6  -8  23 3056.28 392.485  -2
  24   8  -7 3056.28 392.485   1
  24   8  -6 499.873 291.841   1
  24   8  -5 1029.73 294.578   1
  -2  -8  22 1662.89 375.990  -2
  24   8  -4 1662.89 375.990   1
  24   8  -3 173.973 286.856   1
   0  -8  22 1294.96 207.136  -2
  24   8  -2 1294.96 207.136   1
  24   8  -1 357.635 111.038   1
   2  -8  22 881.155 149.491  -2
  24   8   0 881.155 149.491   1
  24   8   1 122.942 109.520   1
   4  -8  22 2570.61 158.046  -2
  24   8   2 2570.61 158.046   1
  24   8   3 780.936 112.863   1
   6  -8  22 1327.02 167.643  -2
  24   8   4 1327.02 167.643   1
  24   8   5 477.112 123.800   1
   8  -8  22 1429.09 167.700  -2
  24   8   6 1429.09 167.700   1
  24   8   7 277.139 189.974   1
  10  -8  21 2530.41 229.725  -2
  24   8   7 2530.41 229.725   1
  24   8   8 7379.90 160.617   1
  12  -8  21 525.585 166.053  -2
  24   8   9 525.585 166.053   1
  24   8  10 12537.6 174.821   1
  14  -8  21 1237.72 164.289  -2
  24   8  11 1237.72 164.289   1
  24   8  12 711.722 121.550   1
  16  -8  21 6041.27 178.245  -2
  24   8  13 6041.27 178.245   1
  24   8  14-23.4527 106.493   1
  18  -8  21 435.071 133.621  -2
  24   8  15 435.071 133.621   1
  24   8  16 1856.85 150.683   1
  20  -8  21 122.829 174.571  -2
  24   8  17 122.829 174.571   1
  24   8  18 2622.11 146.656   1
  22  -8  21 258.594 155.248  -2
  24   8  19 258.594 155.248   1
  24  -8  20 9680.73 188.955  -2
  24   8  20 9680.73 188.955   1
  24  10 -23-14.4619 175.936   1
 -22 -10  24 811.743 243.377  -2
  24  10 -22 811.743 243.377   1
  24  10 -21 57.5168 197.165   1
 -20 -10  24 272.757 262.325  -2
  24  10 -20 272.757 262.325   1
  24  10 -19 44.2628 212.368   1
  24  10 -18 682.711 227.383   1
 -16 -10  23 907.094 316.818  -2
  24  10 -17 907.094 316.818   1
  24  10 -16 82.7217 240.641   1
 -14 -10  23 999.855 316.465  -2
  24  10 -15 999.855 316.465   1
  24  10 -14 794.098 234.177   1
 -12 -10  23 1812.64 334.262  -2
  24  10 -13 1812.64 334.262   1
  24  10 -12 2107.95 266.831   1
 -10 -10  23 2614.23 357.780  -2
  24  10 -11 2614.23 357.780   1
  24  10 -10 568.110 285.339   1
  -8 -10  23 4438.52 384.927  -2
  24  10  -9 4438.52 384.927   1
  24  10  -8 108.808 265.566   1
  -6 -10  23 758.358 358.552  -2
  24  10  -7 758.358 358.552   1
  24  10  -6 5036.85 310.794   1
  24  10  -5 706.684 268.599   1
  -2 -10  22 3443.71 363.830  -2
  24  10  -4 3443.71 363.830   1
  24  10  -3 351.924 266.037   1
   0 -10  22 465.401 203.750  -2
  24  10  -2 465.401 203.750   1
  24  10  -1 1737.34 160.315   1
   2 -10  22 1258.37 204.087  -2
  24  10   0 1258.37 204.087   1
  24  10   1 62.8968 184.520   1
   4 -10  22 2977.32 276.203  -2
  24  10   2 2977.32 276.203   1
  24  10   3 3257.74 202.606   1
   6 -10  22 1092.20 252.879  -2
  24  10   4 1092.20 252.879   1
  24  10   5 937.343 174.614   1
   8 -10  22 823.529 234.701  -2
  24  10   6 823.529 234.701   1
  24  10   7 389.914 168.165   1
  24  10   8 569.574 163.571   1
  12 -10  21 351.398 203.345  -2
  24  10   9 351.398 203.345   1
  24  10  10 233.303 141.746   1
  14 -10  21 1827.65 188.889  -2
  24  10  11 1827.65 188.889   1
 -10 -12  23 468.226 257.367  -2
  24  12 -11 468.226 257.367   1
  24  12 -10 466.712 205.894   1
  -8 -12  23 1045.85 268.553  -2
  24  12  -9 1045.85 268.553   1
  24  12  -8 207.527 217.098   1
  -6 -12  23 2458.72 283.820  -2
  24  12  -7 2458.72 283.820   1
  24  12  -6 518.976 159.095   1
  24  12  -5 65.5098 164.460   1
  -2 -12  22 10782.9 266.778  -2
  24  12  -4 10782.9 266.778   1
  24  12  -3 260.335 166.434   1
   0 -12  22 3589.42 233.488  -2
  24  12  -2 3589.42 233.488   1
  24  12  -1 148.344 156.094   1
   2 -12  22 560.903 209.509  -2
  24  12   0 560.903 209.509   1
  24  12   1 238.710 150.283   1
   4 -12  22 2281.94 221.489  -2
  24  12   2 2281.94 221.489   1
  24  12   3 328.216 153.474   1
   6 -12  22 1344.50 202.915  -2
  24  12   4 1344.50 202.915   1
  24  12   5 11.5690 135.081   1
   8 -12  22 517.097 177.813  -2
  24  12   6 517.097 177.813   1
  24  12   7 614.343 128.781   1
 -10 -14  23 128.977 123.788  -2
  24  14 -11 128.977 123.788   1
  24  14 -10-49.3840 94.6936   1
  -8 -14  23 889.166 136.448  -2
  24  14  -9 889.166 136.448   1
  24  14  -8 127.836 102.013   1
  -6 -14  23 325.691 132.659  -2
  24  14  -7 325.691 132.659   1
  24  14  -6 40.6113 104.783   1
  24  14  -5-14.0890 103.927   1
  -2 -14  22 618.856 146.838  -2
  24  14  -4 618.856 146.838   1
  24  14  -3 790.206 106.038   1
   0 -14  22 1242.39 145.350  -2
  24  14  -2 1242.39 145.350   1
  25   1 -32 39.7611 161.310   1
  25   1 -31 74.0193 123.459   1
  25  -1 -30 103.502 136.668   1
  25  -1 -29-19.1698 196.020   1
 -29  -1  25 119.916 300.454  -2
  25   1 -29 119.916 300.454   1
  25   1 -28-0.94354 156.583   1
 -27   1  25 142.287 217.108  -2
  25  -1 -27 142.287 217.108   1
  25  -1 -26 30.7352 167.390   1
 -25   1  25 2051.43 238.561  -2
  25  -1 -25 2051.43 238.561   1
  25  -1 -24 586.180 190.435   1
 -23   1  25 2050.14 248.780  -2
  25  -1 -23 2050.14 248.780   1
  25  -1 -22 1999.05 203.133   1
 -21  -1  25 4887.72 254.092  -2
  25   1 -21 4887.72 254.092   1
  25  -1 -20 674.653 179.470   1
  25  -1 -19 1478.99 187.343   1
  25   1 -18 49.1059 274.621   1
 -17   1  24 2436.61 329.512  -2
  25  -1 -18 2436.61 329.512   1
  25  -1 -17 1307.63 116.351   1
 -15  -1  24 1251.34 143.755  -2
  25   1 -16 1251.34 143.755   1
  25   1 -15 143.139 115.286   1
 -13  -1  24 387.251 152.950  -2
  25   1 -14 387.251 152.950   1
  25  -1 -13 1147.66 122.171   1
 -11  -1  24 1216.00 158.951  -2
  25   1 -12 1216.00 158.951   1
  25  -1 -11 317.172 113.684   1
  -9   1  24 1707.75 153.358  -2
  25  -1 -10 1707.75 153.358   1
  25   1  -9 1148.83 113.891   1
  -7  -1  24 2373.79 194.918  -2
  25   1  -8 2373.79 194.918   1
  25   1  -7 206.931 111.244   1
  -5  -1  23 4131.52 293.266  -2
  25   1  -7 4131.52 293.266   1
  25  -1  -6 3973.08 115.176   1
  -3  -1  23 2032.92 136.192  -2
  25   1  -5 2032.92 136.192   1
  25  -1  -4 3227.25 94.8601   1
  -1  -1  23 5033.02 123.569  -2
  25   1  -3 5033.02 123.569   1
  25   1  -2 89.4490 73.4917   1
  -1   1 -23 5886.98 111.999  -2
 -25  -1   1 5886.98 111.999   1
  25   1   0 2247.09 76.1611   1
  -3   1 -23 817.794 95.6850  -2
 -25  -1  -1 817.794 95.6850   1
 -25  -1  -2 1750.26 76.2749   1
  -5   1 -23 549.891 96.5725  -2
 -25  -1  -3 549.891 96.5725   1
 -25  -1  -4 1563.19 75.1815   1
  -7   1 -23 3613.95 127.643  -2
 -25  -1  -5 3613.95 127.643   1
 -25  -1  -6 1742.76 119.693   1
   9  -1  22 5784.15 189.359  -2
  25   1   6 5784.15 189.359   1
 -25  -1  -7 4696.62 99.7814   1
 -11   1 -22 4574.39 116.131  -2
 -25  -1  -8 4574.39 116.131   1
 -25  -1  -9 79.7366 80.3983   1
  13   1  22 5962.93 129.584  -2
  25  -1  10 5962.93 129.584   1
  25  -1  11 2862.14 94.0662   1
  15   1  22 8039.20 140.071  -2
  25  -1  12 8039.20 140.071   1
  25  -1  13 9238.57 110.225   1
  17   1  22 4612.96 129.107  -2
  25  -1  14 4612.96 129.107   1
  25   1  15 2430.85 93.1586   1
  19   1  22 4052.60 124.238  -2
  25  -1  16 4052.60 124.238   1
  25   1  17 2231.68 89.0440   1
  21   1  22 3432.50 115.098  -2
  25  -1  18 3432.50 115.098   1
  25  -1  19 714.868 110.723   1
  23  -1  21 901.152 143.809  -2
  25   1  19 901.152 143.809   1
  25  -1  20 133.215 71.5259   1
  25  -1  21 577.122 89.8350  -2
  25   1  21 577.122 89.8350   1
  25   1  22 93.6205 80.8137   1
  27  -1  21 618.000 108.311  -2
  25   1  23 618.000 108.311   1
  25   3 -32 21.5201 150.233   1
  25   3 -31 118.123 179.836   1
  25   3 -30-80.5206 189.357   1
 -29  -3  25 231.427 293.841  -2
  25   3 -29 231.427 293.841   1
  25   3 -28 257.446 240.212   1
 -27  -3  25 191.205 333.563  -2
  25   3 -27 191.205 333.563   1
  25   3 -26 34.4726 248.761   1
 -25  -3  25 1097.04 363.151  -2
  25   3 -25 1097.04 363.151   1
  25   3 -24 428.798 291.734   1
 -23  -3  25 737.863 372.590  -2
  25   3 -23 737.863 372.590   1
  25   3 -22 4023.06 314.158   1
 -21  -3  25 3032.66 397.563  -2
  25   3 -21 3032.66 397.563   1
  25   3 -20-86.0560 279.999   1
  25   3 -19 1027.63 294.002   1
 -17  -3  24 1263.12 370.089  -2
  25   3 -18 1263.12 370.089   1
  25   3 -17 124.720 276.867   1
 -15  -3  24 4339.05 392.179  -2
  25   3 -16 4339.05 392.179   1
  25   3 -15 1889.84 183.470   1
 -13  -3  24 1968.55 234.109  -2
  25   3 -14 1968.55 234.109   1
  25   3 -13 4007.59 199.877   1
 -11  -3  24 1011.67 147.906  -2
  25   3 -12 1011.67 147.906   1
  25   3 -11 82.7287 109.583   1
  -9  -3  24 4347.57 161.774  -2
  25   3 -10 4347.57 161.774   1
  25   3  -9 740.729 116.322   1
 -25  -3   8 4225.57 322.368   1
  -7  -3  24 4348.40 165.550  -2
  25   3  -8 4348.40 165.550   1
  25   3  -7 3523.24 122.564   1
  -5  -3  23 4961.11 355.100  -2
  25   3  -7 4961.11 355.100   1
  25   3  -6 3801.58 113.122   1
 -25  -3   5-41.6322 290.602   1
  -3  -3  23 55.1889 66.5746  -2
  25   3  -5 55.1889 66.5746   1
  25   3  -4 588.934 95.2371   1
  -1  -3  23 2260.69 125.686  -2
  25   3  -3 2260.69 125.686   1
 -25  -3   2 1210.40 83.4148   1
   1  -3  23 3494.31 108.362  -2
  25   3  -1 3494.31 108.362   1
 -25  -3   0 1357.84 76.1592   1
  -3   3 -23 392.982 97.4863  -2
 -25  -3  -1 392.982 97.4863   1
 -25  -3  -2 2108.12 80.9114   1
  -5   3 -23 303.346 102.972  -2
 -25  -3  -3 303.346 102.972   1
 -25  -3  -4 11.9265 81.8245   1
  -7   3 -23 552.556 111.076  -2
 -25  -3  -5 552.556 111.076   1
 -25  -3  -6 205.155 135.918   1
   9  -3  22 925.173 161.773  -2
  25   3   6 925.173 161.773   1
 -25  -3  -7 1761.89 94.4169   1
  11   3  22 8681.30 147.299  -2
  25  -3   8 8681.30 147.299   1
  25  -3   9 280.961 90.6781   1
  13   3  22 9279.13 156.514  -2
  25  -3  10 9279.13 156.514   1
  25  -3  11 1607.45 98.1128   1
  15   3  22 1695.74 116.660  -2
  25  -3  12 1695.74 116.660   1
  25  -3  13 510.654 84.5901   1
  17   3  22 10292.8 147.342  -2
  25  -3  14 10292.8 147.342   1
  25   3  15 4889.37 100.227   1
  19   3  22 1694.00 139.422  -2
  25  -3  16 1694.00 139.422   1
  25  -3  17 132.903 100.336   1
  21  -3  22 505.975 127.339  -2
  25   3  18 505.975 127.339   1
  23  -3  21 612.868 123.024  -2
  25   3  19 612.868 123.024   1
  25   3  20 403.155 88.6405   1
  25  -3  21 3144.21 127.014  -2
  25   3  21 3144.21 127.014   1
  25   3  22 111.273 84.5834   1
  27  -3  21 2582.49 135.672  -2
  25   3  23 2582.49 135.672   1
  25   3  24 550.823 105.118   1
  25   5 -31 107.843 151.282   1
  25   5 -30 7.89303 165.797   1
 -29  -5  25 532.163 265.160  -2
  25   5 -29 532.163 265.160   1
  25   5 -28 26.6634 205.191   1
 -27  -5  25 215.510 300.280  -2
  25   5 -27 215.510 300.280   1
  25   5 -26 182.458 253.638   1
 -25  -5  25 1795.83 354.382  -2
  25   5 -25 1795.83 354.382   1
  25   5 -24 125.252 279.074   1
 -23  -5  25 209.587 369.548  -2
  25   5 -23 209.587 369.548   1
  25   5 -22-20.5677 292.406   1
 -21  -5  25 795.583 387.772  -2
  25   5 -21 795.583 387.772   1
  25   5 -20 470.009 299.523   1
  25   5 -19 2135.89 296.689   1
 -17  -5  24 351.301 375.299  -2
  25   5 -18 351.301 375.299   1
  25   5 -17 164.481 288.767   1
 -15  -5  24 322.342 363.701  -2
  25   5 -16 322.342 363.701   1
  25   5 -15 26.8573 270.094   1
 -13  -5  24 715.800 364.267  -2
  25   5 -14 715.800 364.267   1
  25   5 -13 386.246 277.791   1
 -11  -5  24 2322.75 366.614  -2
  25   5 -12 2322.75 366.614   1
  25   5 -11 1638.29 191.456   1
  -9  -5  24 3462.90 255.706  -2
  25   5 -10 3462.90 255.706   1
  25   5  -9 3218.71 199.727   1
  -7  -5  24 6933.61 189.029  -2
  25   5  -8 6933.61 189.029   1
  25   5  -7 994.117 147.244   1
  -5  -5  23 1392.20 354.108  -2
  25   5  -7 1392.20 354.108   1
  25   5  -6 5125.67 152.521   1
 -25  -5   5 1293.49 203.218   1
  -3  -5  23 1489.74 149.543  -2
  25   5  -5 1489.74 149.543   1
  25   5  -4 1055.52 98.3290   1
  -1  -5  23 3268.43 119.853  -2
  25   5  -3 3268.43 119.853   1
  25   5  -2 3362.81 93.6299   1
   1  -5  23 3246.71 144.727  -2
  25   5  -1 3246.71 144.727   1
  25   5   0 278.358 97.7383   1
   3  -5  23 627.317 129.937  -2
  25   5   1 627.317 129.937   1
  25   5   2 93.6667 88.2073   1
   5  -5  23 3040.27 141.792  -2
  25   5   3 3040.27 141.792   1
 -25  -5  -4 3310.41 110.503   1
   7  -5  23 456.045 137.277  -2
  25   5   5 456.045 137.277   1
  25  -5   6 2390.41 158.274   1
   9  -5  22 3417.99 238.324  -2
  25   5   6 3417.99 238.324   1
  25   5   7 912.680 119.893   1
  11   5  22 2857.58 160.960  -2
  25  -5   8 2857.58 160.960   1
  25  -5   9 363.659 115.384   1
  13   5  22 1561.97 158.922  -2
  25  -5  10 1561.97 158.922   1
  25  -5  11 3262.64 129.767   1
  15  -5  22 830.804 158.293  -2
  25   5  12 830.804 158.293   1
  25   5  13 6478.08 136.743   1
  17   5  22 1635.81 155.740  -2
  25  -5  14 1635.81 155.740   1
  25   5  15 722.556 112.321   1
  19  -5  22 1389.01 152.580  -2
  25   5  16 1389.01 152.580   1
  25   5  17 2532.52 112.310   1
  21  -5  22 1244.47 150.104  -2
  25   5  18 1244.47 150.104   1
  25   5  19 2563.07 150.855   1
  23  -5  21 3362.14 205.363  -2
  25   5  19 3362.14 205.363   1
  25   5  20 238.406 132.119   1
  25  -5  21 352.544 167.222  -2
  25   5  21 352.544 167.222   1
  25   5  22 172.746 115.750   1
  27  -5  21 781.785 135.252  -2
  25   5  23 781.785 135.252   1
  25   7 -29 52.4380 143.249   1
  25   7 -28 147.164 161.355   1
 -27  -7  25 98.8582 250.343  -2
  25   7 -27 98.8582 250.343   1
  25   7 -26 96.5739 210.986   1
 -25  -7  25-2.93967 294.177  -2
  25   7 -25-2.93967 294.177   1
  25   7 -24 214.736 240.482   1
 -23  -7  25-81.7569 338.093  -2
  25   7 -23-81.7569 338.093   1
  25   7 -22 333.450 275.506   1
 -21  -7  25 153.523 362.149  -2
  25   7 -21 153.523 362.149   1
  25   7 -20 109.767 283.841   1
  25   7 -19 525.610 281.258   1
 -17  -7  24 3904.73 403.430  -2
  25   7 -18 3904.73 403.430   1
  25   7 -17 273.101 288.181   1
 -15  -7  24 36.2564 161.621  -2
  25   7 -16 36.2564 161.621   1
  25   7 -15 1402.07 299.973   1
 -13  -7  24 1261.55 393.541  -2
  25   7 -14 1261.55 393.541   1
  25   7 -13 642.192 285.461   1
 -11  -7  24 1321.06 382.321  -2
  25   7 -12 1321.06 382.321   1
  25   7 -11 13.2629 292.694   1
  -9  -7  24 1713.93 364.758  -2
  25   7 -10 1713.93 364.758   1
  25   7  -9 113.041 145.741   1
  -7  -7  24 955.245 188.349  -2
  25   7  -8 955.245 188.349   1
  25   7  -7 158.997 171.125   1
  -5  -7  23 719.974 355.269  -2
  25   7  -7 719.974 355.269   1
  25   7  -6 2405.24 155.417   1
  -3  -7  23 457.377 187.880  -2
  25   7  -5 457.377 187.880   1
  25   7  -4 958.465 151.276   1
  -1  -7  23 2584.57 161.406  -2
  25   7  -3 2584.57 161.406   1
  25   7  -2 108.381 114.490   1
   1  -7  23 591.518 154.526  -2
  25   7  -1 591.518 154.526   1
  25   7   0 843.087 119.462   1
   3  -7  23 648.275 152.820  -2
  25   7   1 648.275 152.820   1
  25   7   2 1050.31 118.869   1
   5  -7  23 1181.55 153.972  -2
  25   7   3 1181.55 153.972   1
  25   7   4 70.8038 101.690   1
   7  -7  23 1530.08 149.755  -2
  25   7   5 1530.08 149.755   1
  25  -7   6 407.261 153.179   1
   9  -7  22 1074.85 224.432  -2
  25   7   6 1074.85 224.432   1
  25   7   7 1663.54 118.705   1
  11   7  22 7992.64 180.657  -2
  25  -7   8 7992.64 180.657   1
  25   7   9 2536.17 124.328   1
  13  -7  22 1422.35 156.622  -2
  25   7  10 1422.35 156.622   1
  25   7  11 92.3442 124.105   1
  15  -7  22 1015.55 167.044  -2
  25   7  12 1015.55 167.044   1
  25   7  13 227.326 116.296   1
  17  -7  22 6931.34 187.626  -2
  25   7  14 6931.34 187.626   1
  25   7  15 61.8919 105.722   1
  19  -7  22 1704.88 139.751  -2
  25   7  16 1704.88 139.751   1
  25   7  17 493.434 96.6017   1
  21  -7  22 365.591 170.912  -2
  25   7  18 365.591 170.912   1
  23  -7  21 1871.63 170.443  -2
  25   7  19 1871.63 170.443   1
  25   7  20 781.804 113.401   1
 -25  -9  25 1005.97 216.064  -2
  25   9 -25 1005.97 216.064   1
  25   9 -24 122.100 183.807   1
 -23  -9  25 1087.93 261.438  -2
  25   9 -23 1087.93 261.438   1
  25   9 -22 24.5312 201.324   1
 -21  -9  25 498.002 284.382  -2
  25   9 -21 498.002 284.382   1
  25   9 -20 36.8541 240.926   1
  25   9 -19 112.592 250.858   1
 -17  -9  24 1247.90 338.405  -2
  25   9 -18 1247.90 338.405   1
  25   9 -17 38.3842 251.576   1
 -15  -9  24 1826.68 353.779  -2
  25   9 -16 1826.68 353.779   1
  25   9 -15 204.964 271.146   1
 -13  -9  24 549.415 349.282  -2
  25   9 -14 549.415 349.282   1
  25   9 -13 284.332 270.065   1
 -11  -9  24 598.550 371.351  -2
  25   9 -12 598.550 371.351   1
  25   9 -11 1038.86 295.063   1
  -9  -9  24 2917.72 375.866  -2
  25   9 -10 2917.72 375.866   1
  25   9  -9 4231.51 320.424   1
  -7  -9  24 1786.22 367.588  -2
  25   9  -8 1786.22 367.588   1
  25   9  -7 559.040 303.578   1
  25   9  -6 3270.74 316.369   1
  -3  -9  23 1043.67 373.048  -2
  25   9  -5 1043.67 373.048   1
  25   9  -4-0.10629 154.203   1
  -1  -9  23 5830.43 233.823  -2
  25   9  -3 5830.43 233.823   1
  25   9  -2 430.334 157.761   1
   1  -9  23 4498.65 232.051  -2
  25   9  -1 4498.65 232.051   1
  25   9   0 143.210 152.996   1
   3  -9  23 1290.36 212.924  -2
  25   9   1 1290.36 212.924   1
  25   9   2 533.862 189.860   1
   5  -9  23 368.315 256.442  -2
  25   9   3 368.315 256.442   1
  25   9   4 1408.86 198.680   1
   7  -9  23 341.517 65.3073  -2
  25   9   5 341.517 65.3073   1
  25   9   6 3307.48 210.052   1
   9  -9  22 5833.38 224.977  -2
  25   9   6 5833.38 224.977   1
  25   9   7 1296.23 120.633   1
  11  -9  22 345.327 149.460  -2
  25   9   8 345.327 149.460   1
  25   9   9 1895.76 115.821   1
  13  -9  22 157.067 139.542  -2
  25   9  10 157.067 139.542   1
  25   9  11 1915.09 107.705   1
  15  -9  22 644.680 132.655  -2
  25   9  12 644.680 132.655   1
  25   9  13 1594.26 97.5375   1
  17  -9  22 487.809 166.217  -2
  25   9  14 487.809 166.217   1
  25   9  15 734.114 128.719   1
  19  -9  22 2674.49 162.646  -2
  25   9  16 2674.49 162.646   1
  25  11 -20 60.1881 86.5619   1
  25  11 -18 468.075 193.856   1
  25  11 -17-44.9798 192.779   1
 -15 -11  24 40.4205 258.865  -2
  25  11 -16 40.4205 258.865   1
  25  11 -15 87.2567 202.053   1
 -13 -11  24 220.708 263.212  -2
  25  11 -14 220.708 263.212   1
  25  11 -13 122.070 214.550   1
 -11 -11  24 768.904 292.211  -2
  25  11 -12 768.904 292.211   1
  25  11 -11 178.563 219.515   1
  -9 -11  24 968.257 302.941  -2
  25  11 -10 968.257 302.941   1
  25  11  -9 258.064 236.269   1
  -7 -11  24 1803.27 303.211  -2
  25  11  -8 1803.27 303.211   1
  25  11  -7 355.608 242.680   1
  25  11  -6 1368.71 256.481   1
  -3 -11  23 1300.52 191.565  -2
  25  11  -5 1300.52 191.565   1
  25  11  -4 46.9334 137.858   1
  -1 -11  23 2009.36 197.614  -2
  25  11  -3 2009.36 197.614   1
  25  11  -2-45.8138 169.700   1
   1 -11  23 589.204 228.404  -2
  25  11  -1 589.204 228.404   1
  25  11   0 462.852 170.092   1
   3 -11  23 1599.18 239.864  -2
  25  11   1 1599.18 239.864   1
  25  11   2 267.370 168.966   1
   5 -11  23 348.872 211.328  -2
  25  11   3 348.872 211.328   1
  25  11   4 12.9966 159.803   1
   7 -11  23 363.046 195.379  -2
  25  11   5 363.046 195.379   1
  25  11   6 70.2971 145.230   1
  25  11   7 408.693 140.634   1
  11 -11  22 1266.47 180.098  -2
  25  11   8 1266.47 180.098   1
  25  11   9 793.205 126.171   1
  25  13 -15 427.741 94.9000   1
 -13 -13  24 236.547 130.997  -2
  25  13 -14 236.547 130.997   1
  25  13 -13 49.4643 103.515   1
 -11 -13  24 626.556 150.350  -2
  25  13 -12 626.556 150.350   1
  25  13 -11 9.34240 111.865   1
  -9 -13  24 397.460 158.580  -2
  25  13 -10 397.460 158.580   1
  25  13  -9 330.614 120.921   1
  -7 -13  24 489.987 158.991  -2
  25  13  -8 489.987 158.991   1
  25  13  -7 100.398 122.006   1
  25  13  -6 109.259 124.026   1
  -3 -13  23 234.981 172.208  -2
  25  13  -5 234.981 172.208   1
  25  13  -4 770.267 133.793   1
  -1 -13  23 1632.07 178.362  -2
  25  13  -3 1632.07 178.362   1
  25  13  -2-0.79090 122.771   1
   1 -13  23 762.225 170.292  -2
  25  13  -1 762.225 170.292   1
  25  13   0 41.2776 115.590   1
   3 -13  23 366.425 165.057  -2
  25  13   1 366.425 165.057   1
  25  13   2 55.8309 114.507   1
   5 -13  23 127.481 143.372  -2
  25  13   3 127.481 143.372   1
  26   0 -30 257.618 186.641   1
 -28   0  26 176.803 277.048  -2
  26   0 -28 176.803 277.048   1
 -26   0  26 3012.44 314.493  -2
  26   0 -26 3012.44 314.493   1
 -24   0  26 84.4253 307.041  -2
  26   0 -24 84.4253 307.041   1
 -22   0  26 1384.82 341.117  -2
  26   0 -22 1384.82 341.117   1
  26   0 -20 470.794 243.670   1
  26   0 -18 88.1535 251.632   1
  26   0 -16 897.857 253.183   1
  26   0 -14 4191.92 193.996   1
  26   0 -12 5917.66 206.792   1
  26   0 -10 434.668 167.210   1
  26   0  -8 268.082 253.146   1
  -6   0  24 1389.45 265.318  -2
  26   0  -8 1389.45 265.318   1
  26   0  -6 52.7437 158.116   1
  -4   0  24 5930.70 228.668  -2
  26   0  -6 5930.70 228.668   1
  -2   0  24 3539.76 165.977  -2
  26   0  -4 3539.76 165.977   1
   0   0  24 3532.60 145.749  -2
  26   0  -2 3532.60 145.749   1
  -2   0 -24 4810.40 144.265  -2
 -26   0   0 4810.40 144.265   1
  -4   0 -24 4921.89 145.447  -2
 -26   0  -2 4921.89 145.447   1
  -6   0 -24 11559.0 210.079  -2
 -26   0  -4 11559.0 210.079   1
 -26   0  -6 438.924 118.344   1
  26   0   8 476.384 121.269   1
  26   0  10 545.061 122.980   1
  26   0  12 12991.5 170.717   1
  26   0  14 1267.71 127.391   1
  26   0  16 2124.57 126.408   1
  26   0  18 2461.61 174.071   1
  22   0  22 4505.18 219.905  -2
  26   0  18 4505.18 219.905   1
  24   0  22 2625.88 135.406  -2
  26   0  20 2625.88 135.406   1
  26   0  22 5101.62 133.926  -2
  26   0  22 5101.62 133.926   1
  26   2 -31 137.711 169.777   1
  26   2 -30 84.7469 192.723   1
  26   2 -29 561.867 200.343   1
 -28  -2  26 180.785 299.081  -2
  26   2 -28 180.785 299.081   1
  26   2 -27 262.517 233.166   1
 -26   2  26 130.669 196.816  -2
  26  -2 -26 130.669 196.816   1
  26  -2 -25 64.3288 157.796   1
 -24   2  26 413.986 213.048  -2
  26  -2 -24 413.986 213.048   1
  26  -2 -23 696.794 173.038   1
  26  -2 -22-55.5600 214.078   1
 -22  -2  26-75.3246 367.337  -2
  26   2 -22-75.3246 367.337   1
  26  -2 -21 250.763 174.060   1
  26  -2 -20 194.306 167.935   1
  26   2 -19 272.571 171.830   1
  26   2 -18 363.947 278.388   1
 -16  -2  25 556.477 353.794  -2
  26   2 -17 556.477 353.794   1
  26   2 -16 88.6179 256.927   1
 -14  -2  25 172.247 131.682  -2
  26   2 -15 172.247 131.682   1
  26   2 -14 1620.31 151.917   1
 -12  -2  25 3661.08 212.947  -2
  26   2 -13 3661.08 212.947   1
  26   2 -12 19.3987 141.160   1
 -10  -2  25 613.428 187.426  -2
  26   2 -11 613.428 187.426   1
  26   2 -10 3672.89 161.001   1
 -26  -2   9 243.452 268.021   1
  -8  -2  25 323.670 128.979  -2
  26   2  -9 323.670 128.979   1
 -26  -2   8 4252.19 127.177   1
  -6  -2  24 3715.97 318.346  -2
  26   2  -8 3715.97 318.346   1
  26   2  -7 743.471 98.3323   1
 -26  -2   6 2974.04 327.588   1
  -4  -2  24 5401.39 157.487  -2
  26   2  -6 5401.39 157.487   1
  26   2  -5 706.151 102.989   1
  -2  -2  24 1027.16 116.637  -2
  26   2  -4 1027.16 116.637   1
 -26  -2   3 72.4603 84.9941   1
   0  -2  24 814.915 94.0255  -2
  26   2  -2 814.915 94.0255   1
 -26  -2   1 1726.99 77.2762   1
   2  -2  24 829.899 98.4587  -2
  26   2   0 829.899 98.4587   1
  26   2   1 1513.60 79.3012   1
  -4   2 -24 614.418 103.979  -2
 -26  -2  -2 614.418 103.979   1
 -26  -2  -3 126.791 78.8227   1
  -6   2 -24 7401.22 127.627  -2
 -26  -2  -4 7401.22 127.627   1
 -26   2  -5 2780.98 140.118   1
   8  -2  23 5603.16 189.406  -2
  26   2   5 5603.16 189.406   1
 -26  -2  -6 7260.41 115.254   1
  10   2  23 21911.0 190.274  -2
  26  -2   7 21911.0 190.274   1
  26  -2   8 4307.05 111.037   1
  12   2  23 8130.77 158.268  -2
  26  -2   9 8130.77 158.268   1
  26   2  10 6190.72 116.020   1
  14   2  23 325.194 109.527  -2
  26  -2  11 325.194 109.527   1
  26  -2  12 278.857 81.3822   1
  16   2  23 1288.55 112.550  -2
  26  -2  13 1288.55 112.550   1
  26  -2  14 453.740 82.3241   1
  18   2  23 891.180 113.016  -2
  26  -2  15 891.180 113.016   1
  26  -2  16 748.561 80.5522   1
  20   2  23 3878.08 117.166  -2
  26  -2  17 3878.08 117.166   1
  26  -2  18 181.843 106.992   1
  22   2  22 629.600 148.080  -2
  26  -2  18 629.600 148.080   1
  26   2  19 1690.61 97.2531   1
  24  -2  22 633.529 113.996  -2
  26   2  20 633.529 113.996   1
  26   2  21 3737.99 91.7616   1
  26  -2  22 906.100 107.322  -2
  26   2  22 906.100 107.322   1
  26   2  23 3751.89 122.346   1
  26   4 -31 19.9193 151.363   1
  26   4 -30 255.580 176.390   1
  26   4 -29 0.04968 183.011   1
 -28  -4  26 303.449 279.286  -2
  26   4 -28 303.449 279.286   1
  26   4 -27 79.9423 224.762   1
 -26  -4  26 1433.64 324.925  -2
  26   4 -26 1433.64 324.925   1
  26   4 -25-66.0168 261.236   1
 -24  -4  26 213.380 337.983  -2
  26   4 -24 213.380 337.983   1
  26   4 -23 454.422 269.720   1
 -22  -4  26 1226.81 354.022  -2
  26   4 -22 1226.81 354.022   1
  26   4 -21 50.0088 293.038   1
  26   4 -20 680.967 305.469   1
  26   4 -19 1294.45 298.650   1
  26   4 -18 642.469 290.512   1
 -16  -4  25 493.631 366.184  -2
  26   4 -17 493.631 366.184   1
  26   4 -16 1297.22 293.254   1
 -14  -4  25 384.727 365.046  -2
  26   4 -15 384.727 365.046   1
  26   4 -14-27.6939 118.199   1
 -12  -4  25 573.477 163.130  -2
  26   4 -13 573.477 163.130   1
  26   4 -12 3106.35 139.683   1
 -10  -4  25 379.124 146.507  -2
  26   4 -11 379.124 146.507   1
  26   4 -10 7212.00 150.920   1
  -8  -4  25 1461.92 157.790  -2
  26   4  -9 1461.92 157.790   1
  26   4  -8 829.172 132.746   1
  -6  -4  24 1409.39 332.626  -2
  26   4  -8 1409.39 332.626   1
  26   4  -7 254.664 98.4105   1
 -26  -4   6 421.261 331.647   1
  -4  -4  24 921.234 135.568  -2
  26   4  -6 921.234 135.568   1
  26   4  -5 1530.58 102.079   1
  -2  -4  24 3732.34 140.467  -2
  26   4  -4 3732.34 140.467   1
  26   4  -3 229.851 82.6637   1
   0  -4  24 1818.29 116.583  -2
  26   4  -2 1818.29 116.583   1
  26   4  -1 441.138 85.0411   1
   2  -4  24 1308.44 105.377  -2
  26   4   0 1308.44 105.377   1
 -26  -4  -1 253.373 76.2588   1
  -4   4 -24 6347.81 129.069  -2
 -26  -4  -2 6347.81 129.069   1
 -26  -4  -3 892.034 88.5666   1
   6  -4  24 9867.71 136.170  -2
  26   4   4 9867.71 136.170   1
  26  -4   5 869.549 148.763   1
   8  -4  23 1104.48 158.903  -2
  26   4   5 1104.48 158.903   1
  26  -4   6 1011.07 97.9618   1
  10   4  23 3187.05 129.428  -2
  26  -4   7 3187.05 129.428   1
  26   4   8 2757.67 127.546   1
  12  -4  23 232.356 89.5054  -2
  26   4   9 232.356 89.5054   1
  26   4  10 7995.67 148.727   1
  14   4  23 1005.23 157.924  -2
  26  -4  11 1005.23 157.924   1
  26  -4  12 497.526 111.689   1
  16   4  23 1287.90 156.102  -2
  26  -4  13 1287.90 156.102   1
  26  -4  14 1229.75 117.556   1
  18  -4  23 718.289 152.553  -2
  26   4  15 718.289 152.553   1
  26  -4  16 1309.49 117.463   1
  20  -4  23 1339.95 140.744  -2
  26   4  17 1339.95 140.744   1
  26   4  18 181.695 164.053   1
  22   4  22 574.662 164.091  -2
  26  -4  18 574.662 164.091   1
  26   4  19 424.511 90.1941   1
  24  -4  22 3874.63 140.237  -2
  26   4  20 3874.63 140.237   1
  26   4  21 319.957 120.366   1
  26  -4  22 66.2920 138.579  -2
  26   4  22 66.2920 138.579   1
  26   6 -29 134.820 159.817   1
 -28  -6  26 38.9682 236.207  -2
  26   6 -28 38.9682 236.207   1
  26   6 -27-128.956 205.103   1
 -26  -6  26 432.400 285.686  -2
  26   6 -26 432.400 285.686   1
  26   6 -25 31.7104 222.166   1
 -24  -6  26 372.171 318.191  -2
  26   6 -24 372.171 318.191   1
  26   6 -23 41.9286 251.826   1
 -22  -6  26 285.237 334.509  -2
  26   6 -22 285.237 334.509   1
  26   6 -21-71.2230 267.176   1
  26   6 -20 129.195 287.695   1
  26   6 -19 242.158 290.820   1
  26   6 -18 147.636 280.593   1
 -16  -6  25 1030.68 381.565  -2
  26   6 -17 1030.68 381.565   1
  26   6 -16 1562.73 301.258   1
 -14  -6  25 726.931 383.901  -2
  26   6 -15 726.931 383.901   1
  26   6 -14 75.0132 137.780   1
 -12  -6  25 767.776 184.442  -2
  26   6 -13 767.776 184.442   1
  26   6 -12 333.291 145.278   1
 -10  -6  25 4585.89 211.661  -2
  26   6 -11 4585.89 211.661   1
  26   6 -10 391.670 144.663   1
  -8  -6  25 1373.38 193.537  -2
  26   6  -9 1373.38 193.537   1
  26   6  -8-17.0989 146.044   1
  26   6  -7 1167.54 153.552   1
  -4  -6  24 1514.75 154.994  -2
  26   6  -6 1514.75 154.994   1
  26   6  -5 189.961 113.036   1
  -2  -6  24 2592.84 161.836  -2
  26   6  -4 2592.84 161.836   1
  26   6  -3 100.069 118.182   1
   0  -6  24 247.441 155.976  -2
  26   6  -2 247.441 155.976   1
  26   6  -1 193.451 115.211   1
   2  -6  24 423.556 154.672  -2
  26   6   0 423.556 154.672   1
  26   6   1 973.126 124.641   1
   4  -6  24 2887.08 168.582  -2
  26   6   2 2887.08 168.582   1
  26   6   3 512.984 105.316   1
   6  -6  24 346.410 131.925  -2
  26   6   4 346.410 131.925   1
  26  -6   5 1581.75 150.771   1
   8  -6  23 1542.01 238.519  -2
  26   6   5 1542.01 238.519   1
  26  -6   6 565.298 116.523   1
  10   6  23 7885.80 178.087  -2
  26  -6   7 7885.80 178.087   1
  26  -6   8 342.766 113.891   1
  12   6  23 5087.72 173.190  -2
  26  -6   9 5087.72 173.190   1
  26   6  10 3810.19 129.716   1
  14   6  23 5822.16 178.967  -2
  26  -6  11 5822.16 178.967   1
  26   6  12 1610.48 117.799   1
  16  -6  23 395.962 147.117  -2
  26   6  13 395.962 147.117   1
  26   6  14 8804.47 136.151   1
  18  -6  23 1226.99 151.780  -2
  26   6  15 1226.99 151.780   1
  26   6  16 1653.83 112.731   1
  20  -6  23 2075.99 139.960  -2
  26   6  17 2075.99 139.960   1
  26   6  18 1050.53 133.561   1
  22  -6  22 986.740 173.082  -2
  26   6  18 986.740 173.082   1
  26   6  19 54.5205 125.705   1
  24  -6  22 2476.36 159.278  -2
  26   6  20 2476.36 159.278   1
  26   6  21 942.655 103.532   1
 -26  -8  26 324.529 217.230  -2
  26   8 -26 324.529 217.230   1
  26   8 -25 62.6156 186.110   1
 -24  -8  26 306.558 265.264  -2
  26   8 -24 306.558 265.264   1
  26   8 -23 15.8844 206.587   1
 -22  -8  26 204.504 295.449  -2
  26   8 -22 204.504 295.449   1
  26   8 -21-120.035 249.580   1
  26   8 -20 669.865 269.164   1
  26   8 -19 459.611 271.716   1
  26   8 -18 28.4588 254.906   1
 -16  -8  25 548.744 355.287  -2
  26   8 -17 548.744 355.287   1
  26   8 -16 110.533 260.372   1
 -14  -8  25 963.385 351.271  -2
  26   8 -15 963.385 351.271   1
  26   8 -14 799.837 280.186   1
 -12  -8  25 900.874 358.491  -2
  26   8 -13 900.874 358.491   1
  26   8 -12 190.164 278.566   1
 -10  -8  25 816.814 377.864  -2
  26   8 -11 816.814 377.864   1
  26   8 -10 3536.23 324.267   1
  -8  -8  25 2583.46 389.797  -2
  26   8  -9 2583.46 389.797   1
  26   8  -8 71.5879 295.508   1
  26   8  -7 84.2888 296.104   1
  -4  -8  24 635.931 375.116  -2
  26   8  -6 635.931 375.116   1
  26   8  -5 1047.98 159.379   1
  -2  -8  24 699.532 208.361  -2
  26   8  -4 699.532 208.361   1
  26   8  -3 214.866 110.534   1
   0  -8  24 1252.93 150.041  -2
  26   8  -2 1252.93 150.041   1
  26   8  -1 332.627 109.600   1
   2  -8  24 239.551 144.822  -2
  26   8   0 239.551 144.822   1
  26   8   1 982.176 114.336   1
   4  -8  24 653.579 147.057  -2
  26   8   2 653.579 147.057   1
  26   8   3 850.168 124.935   1
   6  -8  24 4879.54 180.154  -2
  26   8   4 4879.54 180.154   1
  26   8   5 462.096 203.284   1
   8  -8  23 539.100 206.813  -2
  26   8   5 539.100 206.813   1
  26   8   6 6935.86 153.632   1
  10  -8  23 1043.64 166.127  -2
  26   8   7 1043.64 166.127   1
  26   8   8 3181.07 131.120   1
  12  -8  23 273.528 158.573  -2
  26   8   9 273.528 158.573   1
  26   8  10 346.492 116.509   1
  14  -8  23 7470.43 188.755  -2
  26   8  11 7470.43 188.755   1
  26   8  12 578.372 109.117   1
  16  -8  23 2982.67 151.742  -2
  26   8  13 2982.67 151.742   1
  26   8  14 4381.17 114.564   1
  18  -8  23 1724.57 126.630  -2
  26   8  15 1724.57 126.630   1
  26   8  16 703.069 128.992   1
  20  -8  23 985.056 154.134  -2
  26   8  17 985.056 154.134   1
  26  10 -21-89.1090 180.893   1
  26  10 -20 51.3142 188.294   1
  26  10 -19-20.4901 208.845   1
  26  10 -18 60.6754 210.418   1
 -16 -10  25 350.994 283.359  -2
  26  10 -17 350.994 283.359   1
  26  10 -16 309.553 218.569   1
 -14 -10  25 776.584 306.256  -2
  26  10 -15 776.584 306.256   1
  26  10 -14 832.444 226.052   1
 -12 -10  25 1738.88 311.875  -2
  26  10 -13 1738.88 311.875   1
  26  10 -12 422.960 252.963   1
 -10 -10  25 1028.26 325.207  -2
  26  10 -11 1028.26 325.207   1
  26  10 -10 446.115 238.197   1
  -8 -10  25 268.470 329.659  -2
  26  10  -9 268.470 329.659   1
  26  10  -8 2044.81 278.547   1
  26  10  -7 523.874 262.852   1
  -4 -10  24 921.234 195.377  -2
  26  10  -6 921.234 195.377   1
  26  10  -5 215.096 148.995   1
  -2 -10  24 743.641 200.624  -2
  26  10  -4 743.641 200.624   1
  26  10  -3 1958.48 156.483   1
   0 -10  24 724.573 196.571  -2
  26  10  -2 724.573 196.571   1
  26  10  -1 8.18413 145.904   1
   2 -10  24 1530.09 252.136  -2
  26  10   0 1530.09 252.136   1
  26  10   1 1371.79 184.903   1
   4 -10  24 418.850 236.254  -2
  26  10   2 418.850 236.254   1
  26  10   3 118.454 170.077   1
   6 -10  24 1259.45 238.532  -2
  26  10   4 1259.45 238.532   1
  26  10   5 546.795 165.730   1
  26  10   6 1651.22 174.532   1
  10 -10  23 1067.26 215.329  -2
  26  10   7 1067.26 215.329   1
  26  10   8 438.595 152.981   1
  12 -10  23 868.466 187.252  -2
  26  10   9 868.466 187.252   1
  26  10  10 163.339 122.695   1
  14 -10  23 1318.27 167.478  -2
  26  10  11 1318.27 167.478   1
  26  12 -17 343.667 92.1471   1
  26  12 -16 99.9755 98.3552   1
 -14 -12  25 300.854 144.787  -2
  26  12 -15 300.854 144.787   1
  26  12 -14 141.168 111.466   1
 -12 -12  25 2270.26 177.206  -2
  26  12 -13 2270.26 177.206   1
  26  12 -12 24.5104 122.468   1
 -10 -12  25 40.1082 165.916  -2
  26  12 -11 40.1082 165.916   1
  26  12 -10 128.687 109.393   1
  26  12  -9 150.579 138.237   1
  26  12  -8 2079.17 150.854   1
  26  12  -7 65.4715 140.306   1
  -4 -12  24 5914.82 222.459  -2
  26  12  -6 5914.82 222.459   1
  26  12  -5 151.264 145.215   1
  -2 -12  24 165.255 198.744  -2
  26  12  -4 165.255 198.744   1
  26  12  -3 343.006 145.858   1
   0 -12  24 231.440 194.538  -2
  26  12  -2 231.440 194.538   1
  26  12  -1 208.734 146.359   1
   2 -12  24 1346.52 205.708  -2
  26  12   0 1346.52 205.708   1
  26  12   1 290.930 144.576   1
   4 -12  24 1229.00 182.736  -2
  26  12   2 1229.00 182.736   1
  26  12   3 53.7164 136.395   1
   6 -12  24 68.3646 168.769  -2
  26  12   4 68.3646 168.769   1
  26  12   5 76.3341 121.945   1
  26  12   6 66.0104 110.054   1
  27   1 -31-30.8403 152.352   1
  27   1 -30 10.7099 172.288   1
 -29  -1  27 389.487 250.192  -2
  27   1 -29 389.487 250.192   1
  27   1 -28 103.234 134.629   1
 -27   1  27 127.859 185.611  -2
  27  -1 -27 127.859 185.611   1
  27  -1 -26 34.5756 152.184   1
 -25   1  27 158.501 198.006  -2
  27  -1 -25 158.501 198.006   1
  27  -1 -24 679.255 168.638   1
  27  -1 -23 760.772 173.845   1
  27  -1 -22 89.5302 177.292   1
  27   1 -21 2694.85 189.227   1
  27   1 -20 206.611 171.398   1
  27  -1 -19 362.814 172.758   1
 -17   1  26-19.1066 219.182  -2
  27  -1 -18-19.1066 219.182   1
  27   1 -17 1576.80 179.889   1
 -15   1  26 97.7661 121.319  -2
  27  -1 -16 97.7661 121.319   1
  27  -1 -15 1763.04 169.609   1
 -13   1  26 47.5114 210.704  -2
  27  -1 -14 47.5114 210.704   1
  27  -1 -13 96.8117 116.297   1
 -11   1  26 233.924 102.607  -2
  27  -1 -12 233.924 102.607   1
  27  -1 -11 1251.80 117.132   1
 -27  -1  10 1207.13 345.530   1
  -9   1  26 1153.52 152.424  -2
  27  -1 -10 1153.52 152.424   1
  27   1  -9 159.332 130.388   1
 -27  -1   8 1130.54 134.998   1
  27   1  -7 4833.03 152.848   1
  -5  -1  25 4771.36 251.023  -2
  27   1  -7 4771.36 251.023   1
  27   1  -6 2045.01 112.938   1
  -3  -1  25 15176.7 181.990  -2
  27   1  -5 15176.7 181.990   1
  27   1  -4 896.734 82.0049   1
   1   1 -25 10978.2 132.882  -2
 -27  -1   3 10978.2 132.882   1
 -27  -1   2 1001.32 77.2997   1
  -1   1 -25 649.200 98.9574  -2
 -27  -1   1 649.200 98.9574   1
 -27  -1   0 695.702 75.6644   1
  -3   1 -25 522.425 96.4241  -2
 -27  -1  -1 522.425 96.4241   1
 -27  -1  -2 86.1372 75.0254   1
  -5   1 -25 1888.79 112.635  -2
 -27  -1  -3 1888.79 112.635   1
 -27  -1  -4 878.884 128.157   1
   7  -1  24 1912.41 180.049  -2
  27   1   4 1912.41 180.049   1
  27   1   5 114.105 98.7572   1
   9  -1  24 2430.08 137.444  -2
  27   1   6 2430.08 137.444   1
  27  -1   7 103.735 96.0994   1
  11   1  24 529.368 130.473  -2
  27  -1   8 529.368 130.473   1
  27  -1   9 104.212 95.8233   1
  13   1  24 1151.84 122.921  -2
  27  -1  10 1151.84 122.921   1
  27  -1  11 4217.08 103.428   1
  15   1  24 6266.79 140.377  -2
  27  -1  12 6266.79 140.377   1
  27  -1  13 545.186 83.7026   1
  17   1  24 10148.4 146.579  -2
  27  -1  14 10148.4 146.579   1
  27  -1  15 2030.16 88.1401   1
  19   1  24 4477.89 121.611  -2
  27  -1  16 4477.89 121.611   1
  21   1  23 2233.11 110.217  -2
  27  -1  17 2233.11 110.217   1
  27   1  18 2063.24 79.3885   1
  23  -1  23 57.1405 46.9636  -2
  27   1  19 57.1405 46.9636   1
  27   1  20 909.591 89.7122   1
  25  -1  23 865.187 105.599  -2
  27   1  21 865.187 105.599   1
  27   1  22 306.552 78.0227   1
  27   3 -31-63.0869 145.943   1
  27   3 -30-25.8101 168.859   1
 -29  -3  27 128.810 246.370  -2
  27   3 -29 128.810 246.370   1
  27   3 -28 28.3583 207.837   1
 -27  -3  27 13.6538 287.703  -2
  27   3 -27 13.6538 287.703   1
  27   3 -26 63.3136 233.990   1
 -25  -3  27 236.515 307.612  -2
  27   3 -25 236.515 307.612   1
  27   3 -24 731.552 253.405   1
 -23  -3  27 208.499 334.047  -2
  27   3 -23 208.499 334.047   1
  27   3 -22 41.0576 270.426   1
  27   3 -21-30.3736 271.698   1
  27   3 -20 2728.79 310.875   1
  27   3 -19 218.923 277.813   1
 -17  -3  26 4326.97 388.188  -2
  27   3 -18 4326.97 388.188   1
  27   3 -17 1210.59 295.398   1
 -15  -3  26 240.428 349.199  -2
  27   3 -16 240.428 349.199   1
  27   3 -15 670.304 277.454   1
 -13  -3  26 1530.42 373.473  -2
  27   3 -14 1530.42 373.473   1
  27   3 -13 1155.53 271.346   1
 -11  -3  26 1964.33 359.878  -2
  27   3 -12 1964.33 359.878   1
  27   3 -11 1424.43 131.849   1
  27   3 -10 1549.30 150.093   1
  -9  -3  26 1416.70 341.581  -2
  27   3 -10 1416.70 341.581   1
  27   3  -9 93.1640 113.827   1
  27   3  -8 319.982 112.981   1
 -27  -3   7 841.949 127.251   1
  -5  -3  25 942.804 344.520  -2
  27   3  -7 942.804 344.520   1
  27   3  -6 23.2084 95.7001   1
  -3  -3  25 3894.84 140.985  -2
  27   3  -5 3894.84 140.985   1
  27   3  -4 521.680 98.6338   1
  -1  -3  25 3855.18 128.549  -2
  27   3  -3 3855.18 128.549   1
  27   3  -2 581.470 84.5406   1
  -1   3 -25 104.182 42.6631  -2
 -27  -3   1 104.182 42.6631   1
  27   3   0 4084.85 90.1710   1
   3  -3  25 1083.00 108.879  -2
  27   3   1 1083.00 108.879   1
 -27  -3  -2 20.0876 83.8981   1
   5  -3  25 2248.68 120.709  -2
  27   3   3 2248.68 120.709   1
  27  -3   4 128.885 143.150   1
   7  -3  24 350.117 146.006  -2
  27   3   4 350.117 146.006   1
  27  -3   5 1266.75 100.151   1
   9   3  24 2079.39 130.057  -2
  27  -3   6 2079.39 130.057   1
  27  -3   7 389.045 92.0894   1
  11   3  24 767.727 122.512  -2
  27  -3   8 767.727 122.512   1
  27  -3   9 752.239 92.8500   1
  13   3  24 456.758 117.553  -2
  27  -3  10 456.758 117.553   1
  27  -3  11 948.829 92.4003   1
  15   3  24 11137.4 161.638  -2
  27  -3  12 11137.4 161.638   1
  27  -3  13 2972.22 98.5373   1
  17   3  24 4953.08 131.880  -2
  27  -3  14 4953.08 131.880   1
  27   3  15 74.4023 109.692   1
  19  -3  24 646.291 142.298  -2
  27   3  16 646.291 142.298   1
  21  -3  23 1174.83 139.124  -2
  27   3  17 1174.83 139.124   1
  27   3  18 4766.76 113.078   1
  23  -3  23 1948.71 121.872  -2
  27   3  19 1948.71 121.872   1
  27   3  20 903.287 97.1553   1
  25  -3  23 2306.62 165.051  -2
  27   3  21 2306.62 165.051   1
  27   3  22 402.298 101.912   1
 -29  -5  27-132.580 212.006  -2
  27   5 -29-132.580 212.006   1
  27   5 -28 13.3979 180.983   1
 -27  -5  27 558.510 264.305  -2
  27   5 -27 558.510 264.305   1
  27   5 -26 39.3812 215.170   1
 -25  -5  27 64.3005 135.140  -2
  27   5 -25 64.3005 135.140   1
  27   5 -24 92.4240 253.423   1
 -23  -5  27 349.769 341.298  -2
  27   5 -23 349.769 341.298   1
  27   5 -22 1876.44 300.176   1
  27   5 -21 2979.30 311.038   1
  27   5 -20 352.761 289.713   1
  27   5 -19 52.8408 283.814   1
 -17  -5  26 501.908 374.737  -2
  27   5 -18 501.908 374.737   1
  27   5 -17 432.350 294.955   1
 -15  -5  26 1143.29 365.481  -2
  27   5 -16 1143.29 365.481   1
  27   5 -15 1474.51 133.183   1
 -13  -5  26 1068.40 175.594  -2
  27   5 -14 1068.40 175.594   1
  27   5 -13 3.27669 129.396   1
 -11  -5  26 66.0733 173.391  -2
  27   5 -12 66.0733 173.391   1
  27   5 -11 144.833 107.798   1
  -9  -5  26 2709.84 148.621  -2
  27   5 -10 2709.84 148.621   1
  27   5  -9 185.584 113.511   1
  27   5  -8 21.6434 152.262   1
  -7  -5  25 751.852 229.136  -2
  27   5  -8 751.852 229.136   1
  27   5  -7 3224.43 186.020   1
  -5  -5  25 3900.36 215.018  -2
  27   5  -7 3900.36 215.018   1
  27   5  -6-5.69142 113.532   1
  -3  -5  25 2901.19 131.583  -2
  27   5  -5 2901.19 131.583   1
  27   5  -4 109.967 93.3075   1
  -1  -5  25 3356.56 95.0874  -2
  27   5  -3 3356.56 95.0874   1
  27   5  -2 167.768 95.3745   1
   1  -5  25 26.6149 124.393  -2
  27   5  -1 26.6149 124.393   1
  27   5   0 109.196 118.521   1
   3  -5  25 1505.41 163.449  -2
  27   5   1 1505.41 163.449   1
  27  -5   2 174.976 103.077   1
   5  -5  25 4511.91 146.439  -2
  27   5   3 4511.91 146.439   1
  27  -5   4 437.180 136.606   1
   7  -5  24 501.108 243.092  -2
  27   5   4 501.108 243.092   1
  27  -5   5 274.562 111.700   1
   9  -5  24 124.602 89.9994  -2
  27   5   6 124.602 89.9994   1
  27  -5   7 195.639 111.968   1
  11   5  24 2842.17 164.624  -2
  27  -5   8 2842.17 164.624   1
  27   5   9 779.481 114.696   1
  13   5  24 5506.14 177.590  -2
  27  -5  10 5506.14 177.590   1
  27   5  11 1807.88 117.057   1
  15   5  24 1285.97 152.732  -2
  27  -5  12 1285.97 152.732   1
  27  -5  13 560.756 110.020   1
  17  -5  24 1274.09 141.685  -2
  27   5  14 1274.09 141.685   1
  27   5  15 3395.61 113.963   1
  19  -5  24 861.402 130.529  -2
  27   5  16 861.402 130.529   1
  21  -5  23 4397.14 151.627  -2
  27   5  17 4397.14 151.627   1
  27   5  18 182.449 94.3886   1
  23  -5  23 607.188 158.085  -2
  27   5  19 607.188 158.085   1
  27   5  20 723.474 112.197   1
  25  -5  23 906.731 134.082  -2
  27   5  21 906.731 134.082   1
 -27  -7  27 1.35940 206.466  -2
  27   7 -27 1.35940 206.466   1
  27   7 -26 87.2204 174.067   1
 -25  -7  27-6.77342 255.105  -2
  27   7 -25-6.77342 255.105   1
  27   7 -24 89.2449 208.426   1
  27   7 -23 200.902 235.374   1
  27   7 -22 130.525 251.315   1
  27   7 -21 54.3778 255.326   1
  27   7 -20 494.144 283.744   1
  27   7 -19 360.489 280.591   1
 -17  -7  26 1043.56 357.564  -2
  27   7 -18 1043.56 357.564   1
  27   7 -17 513.845 289.338   1
 -15  -7  26 1603.53 385.209  -2
  27   7 -16 1603.53 385.209   1
  27   7 -15 520.989 289.557   1
 -13  -7  26 1117.24 375.492  -2
  27   7 -14 1117.24 375.492   1
  27   7 -13 348.427 287.310   1
 -11  -7  26 577.614 377.654  -2
  27   7 -12 577.614 377.654   1
  27   7 -11 1250.91 299.275   1
  -9  -7  26 807.727 184.617  -2
  27   7 -10 807.727 184.617   1
  27   7  -9 2033.41 118.287   1
  27   7  -8 1337.48 116.382   1
  27   7  -7 639.701 180.544   1
  -5  -7  25 900.753 188.780  -2
  27   7  -7 900.753 188.780   1
  27   7  -6 41.9262 111.193   1
  -3  -7  25 1467.65 156.483  -2
  27   7  -5 1467.65 156.483   1
  27   7  -4 1217.25 120.519   1
  -1  -7  25 368.877 155.050  -2
  27   7  -3 368.877 155.050   1
  27   7  -2 1126.14 119.454   1
   1  -7  25 726.516 155.986  -2
  27   7  -1 726.516 155.986   1
  27   7   0 1433.42 121.180   1
   3  -7  25 2625.37 166.274  -2
  27   7   1 2625.37 166.274   1
  27   7   2 551.630 115.948   1
   5  -7  25 1936.67 175.105  -2
  27   7   3 1936.67 175.105   1
  27   7   4 20.9088 196.319   1
   7  -7  24 219.871 219.696  -2
  27   7   4 219.871 219.696   1
  27   7   5 1551.73 112.302   1
   9  -7  24 138.911 143.048  -2
  27   7   6 138.911 143.048   1
  27   7   7 1804.16 114.421   1
  11  -7  24 1084.71 170.293  -2
  27   7   8 1084.71 170.293   1
  27   7   9 413.668 125.605   1
  13  -7  24 136.113 157.673  -2
  27   7  10 136.113 157.673   1
  27   7  11 761.636 122.146   1
  15  -7  24 7143.09 188.479  -2
  27   7  12 7143.09 188.479   1
  27   7  13 809.879 112.033   1
  17  -7  24 2146.93 145.243  -2
  27   7  14 2146.93 145.243   1
  27   7  15 854.494 99.7034   1
  19  -7  24 1295.82 123.432  -2
  27   7  16 1295.82 123.432   1
  21  -7  23 2490.87 169.347  -2
  27   7  17 2490.87 169.347   1
  27   7  18 1253.84 114.322   1
  27   9 -23 185.039 169.811   1
  27   9 -22 53.2072 186.663   1
  27   9 -21 123.509 207.510   1
  27   9 -20 23.9982 210.917   1
  27   9 -19 42.6613 95.8179   1
  27   9 -18 108.591 118.243   1
 -17  -9  26-66.2898 300.897  -2
  27   9 -18-66.2898 300.897   1
  27   9 -17 534.052 243.441   1
 -15  -9  26 1587.23 325.295  -2
  27   9 -16 1587.23 325.295   1
  27   9 -15 580.394 247.687   1
 -13  -9  26 726.587 333.591  -2
  27   9 -14 726.587 333.591   1
  27   9 -13 158.226 269.424   1
 -11  -9  26 1960.89 351.664  -2
  27   9 -12 1960.89 351.664   1
  27   9 -11 27.6989 271.601   1
  -9  -9  26 504.351 345.996  -2
  27   9 -10 504.351 345.996   1
  27   9  -9 132.450 143.161   1
  27   9  -8 84.7214 149.588   1
  27   9  -7-8.33600 175.342   1
  -5  -9  25 599.657 362.834  -2
  27   9  -7 599.657 362.834   1
  27   9  -6 264.669 147.580   1
  -3  -9  25 2020.76 210.155  -2
  27   9  -5 2020.76 210.155   1
  27   9  -4 1550.54 159.524   1
  -1  -9  25 1608.10 212.157  -2
  27   9  -3 1608.10 212.157   1
  27   9  -2 348.895 149.936   1
   1  -9  25 521.159 202.035  -2
  27   9  -1 521.159 202.035   1
  27   9   0 98.6520 154.198   1
   3  -9  25 1764.74 256.699  -2
  27   9   1 1764.74 256.699   1
  27   9   2 857.730 185.893   1
   5  -9  25 622.554 243.720  -2
  27   9   3 622.554 243.720   1
  27   9   4 77.0064 178.577   1
  27   9   5 244.007 107.156   1
   9  -9  24 216.465 141.354  -2
  27   9   6 216.465 141.354   1
  27   9   7 81.8568 105.519   1
  11  -9  24 2979.02 150.891  -2
  27   9   8 2979.02 150.891   1
  27   9   9 686.577 104.332   1
  13  -9  24 3793.17 146.689  -2
  27   9  10 3793.17 146.689   1
  27   9  11 100.159 93.0581   1
  15  -9  24 429.092 116.391  -2
  27   9  12 429.092 116.391   1
  27  11 -18 242.177 86.7810   1
  27  11 -17 79.0318 84.4266   1
 -15 -11  26 256.802 121.997  -2
  27  11 -16 256.802 121.997   1
  27  11 -15 209.852 99.6470   1
 -13 -11  26 1258.42 144.444  -2
  27  11 -14 1258.42 144.444   1
  27  11 -13 163.789 104.734   1
 -11 -11  26 342.699 142.490  -2
  27  11 -12 342.699 142.490   1
  27  11 -11 276.420 114.324   1
  27  11 -10 101.379 141.733   1
  -9 -11  26 664.575 260.775  -2
  27  11 -10 664.575 260.775   1
  27  11  -9 1892.98 133.451   1
  27  11  -8 476.503 125.993   1
  -5 -11  25 804.206 171.748  -2
  27  11  -7 804.206 171.748   1
  27  11  -6 78.9586 128.803   1
  -3 -11  25 863.935 212.224  -2
  27  11  -5 863.935 212.224   1
  27  11  -4 141.272 160.002   1
  -1 -11  25 560.332 215.011  -2
  27  11  -3 560.332 215.011   1
  27  11  -2 1641.76 170.334   1
   1 -11  25 1570.87 223.408  -2
  27  11  -1 1570.87 223.408   1
  27  11   0 176.823 151.722   1
   3 -11  25 378.232 200.332  -2
  27  11   1 378.232 200.332   1
  27  11   2-0.64820 142.755   1
   5 -11  25 421.109 197.224  -2
  27  11   3 421.109 197.224   1
  27  11   4 197.983 138.589   1
  27  11   5 1079.57 147.472   1
   9 -11  24 312.845 181.363  -2
  27  11   6 312.845 181.363   1
  27  11   7 1100.24 131.019   1
  11 -11  24 1328.36 160.469  -2
  27  11   8 1328.36 160.469   1
  27  13 -11 337.600 94.6994   1
  27  13 -10 172.646 99.4462   1
  27  13  -9 35.8063 95.6417   1
  27  13  -8 23.0165 100.547   1
  27  13  -7 9.45711 103.887   1
  27  13  -6 147.898 110.451   1
  -3 -13  25 2767.68 158.244  -2
  27  13  -5 2767.68 158.244   1
  27  13  -4 65.8524 110.467   1
  -1 -13  25 1112.21 148.883  -2
  27  13  -3 1112.21 148.883   1
  27  13  -2 220.877 105.838   1
   1 -13  25 705.521 138.619  -2
  27  13  -1 705.521 138.619   1
 -28   0  28 943.298 240.865  -2
  28   0 -28 943.298 240.865   1
 -26   0  28 310.975 252.185  -2
  28   0 -26 310.975 252.185   1
  28   0 -24 329.196 215.527   1
  28   0 -22 640.509 226.024   1
  28   0 -20 31.4674 242.823   1
  28   0 -18 51.5199 220.243   1
  28   0 -16 310.193 226.215   1
  28   0 -14 965.263 241.648   1
  28   0 -12 2865.96 244.474   1
  28   0 -10 2548.87 187.178   1
  28   0  -8 7973.95 359.863   1
  -6   0  26 7775.79 316.549  -2
  28   0  -8 7775.79 316.549   1
  -4   0  26 9991.04 188.209  -2
  28   0  -6 9991.04 188.209   1
   2   0 -26 1698.86 136.545  -2
 -28   0   4 1698.86 136.545   1
   0   0 -26 711.040 131.069  -2
 -28   0   2 711.040 131.069   1
  -2   0 -26 7072.20 158.185  -2
 -28   0   0 7072.20 158.185   1
   4   0  26 1767.35 192.047  -2
  28   0   2 1767.35 192.047   1
  28   0   4 670.077 144.498   1
  28   0   6 670.127 144.967   1
  28   0   8 9591.84 182.383   1
  28   0  10 22340.2 226.186   1
  28   0  12 6673.53 162.301   1
  28   0  14 255.579 133.901   1
  20   0  24 850.883 159.401  -2
  28   0  16 850.883 159.401   1
  22   0  24 3733.79 153.191  -2
  28   0  18 3733.79 153.191   1
  24   0  24 2225.40 124.158  -2
  28   0  20 2225.40 124.158   1
 -30  -2  28 105.737 202.315  -2
  28   2 -30 105.737 202.315   1
  28   2 -29 79.5615 169.696   1
 -28  -2  28 194.957 249.792  -2
  28   2 -28 194.957 249.792   1
  28   2 -27 84.8622 205.349   1
 -26  -2  28 307.272 288.894  -2
  28   2 -26 307.272 288.894   1
  28   2 -25 1012.93 228.925   1
  28   2 -24 151.789 246.505   1
  28   2 -23 57.5840 255.650   1
  28   2 -22 82.4111 261.131   1
  28   2 -21 1801.66 284.612   1
  28   2 -20 217.725 254.660   1
 -18  -2  27 696.639 343.211  -2
  28   2 -19 696.639 343.211   1
  28   2 -18 59.7037 258.985   1
 -16  -2  27 1122.17 344.753  -2
  28   2 -17 1122.17 344.753   1
  28   2 -16 241.790 260.045   1
 -14  -2  27 5215.69 378.405  -2
  28   2 -15 5215.69 378.405   1
  28   2 -14 32.0002 264.391   1
 -12  -2  27 1294.77 335.506  -2
  28   2 -13 1294.77 335.506   1
  28   2 -12 159.447 255.156   1
 -10  -2  27 2370.09 346.593  -2
  28   2 -11 2370.09 346.593   1
  28   2 -10 1503.83 270.023   1
  28   2  -9 768.876 136.281   1
  28   2  -8 3309.60 133.403   1
  -6  -2  26 4139.06 358.061  -2
  28   2  -8 4139.06 358.061   1
 -28  -2   7 14.5703 104.374   1
   4   2 -26 1886.22 124.790  -2
 -28  -2   6 1886.22 124.790   1
 -28  -2   5 338.907 90.2697   1
  -2  -2  26 1566.09 115.622  -2
  28   2  -4 1566.09 115.622   1
 -28  -2   3 149.870 85.8937   1
   0   2 -26 1059.08 107.307  -2
 -28  -2   2 1059.08 107.307   1
 -28  -2   1 111.417 78.4638   1
   2  -2  26 533.354 115.145  -2
  28   2   0 533.354 115.145   1
  28   2   1 217.428 89.6143   1
   4   2  26 6824.74 131.689  -2
  28  -2   2 6824.74 131.689   1
  28  -2   3 989.872 147.152   1
   6  -2  25 2535.68 158.352  -2
  28   2   3 2535.68 158.352   1
  28   2   4 5928.84 119.286   1
   8  -2  25 4110.22 141.591  -2
  28   2   5 4110.22 141.591   1
  28   2   6 2289.37 103.328   1
  10   2  25 255.888 126.043  -2
  28  -2   7 255.888 126.043   1
  28  -2   8 6585.82 116.116   1
  12   2  25 2847.95 136.412  -2
  28  -2   9 2847.95 136.412   1
  28  -2  10 19.3352 90.5538   1
  14   2  25 4316.87 138.552  -2
  28  -2  11 4316.87 138.552   1
  28  -2  12 398.031 91.3214   1
  16   2  25 2303.23 124.709  -2
  28  -2  13 2303.23 124.709   1
  28  -2  14 35.0079 81.0640   1
  18   2  25 1689.51 113.753  -2
  28  -2  15 1689.51 113.753   1
  28   2  16 165.158 213.333   1
  20   2  24 2337.43 111.331  -2
  28  -2  16 2337.43 111.331   1
  28  -2  17 1548.77 102.572   1
  22  -2  24 959.262 126.054  -2
  28   2  18 959.262 126.054   1
  28   2  19 577.470 86.6344   1
  24  -2  24 778.499 117.897  -2
  28   2  20 778.499 117.897   1
  28   2  21 363.947 104.300   1
  28   4 -29 54.1604 158.814   1
 -28  -4  28 56.9332 93.0698  -2
  28   4 -28 56.9332 93.0698   1
  28   4 -27 29.4742 198.292   1
 -26  -4  28-29.9285 267.331  -2
  28   4 -26-29.9285 267.331   1
  28   4 -25 119.342 233.546   1
  28   4 -24-216.156 229.554   1
  28   4 -23 101.654 257.478   1
  28   4 -22 52.7508 275.132   1
  28   4 -21-8.40861 270.488   1
  28   4 -20 90.7558 276.523   1
 -18  -4  27 290.597 369.461  -2
  28   4 -19 290.597 369.461   1
  28   4 -18 95.1421 279.796   1
 -16  -4  27 121.434 150.062  -2
  28   4 -17 121.434 150.062   1
  28   4 -16 337.999 283.387   1
 -14  -4  27 96.4374 369.800  -2
  28   4 -15 96.4374 369.800   1
  28   4 -14 818.818 285.549   1
 -12  -4  27 1269.38 170.275  -2
  28   4 -13 1269.38 170.275   1
  28   4 -12 739.134 131.576   1
  28   4 -11 613.986 155.345   1
 -10  -4  27 867.548 360.934  -2
  28   4 -11 867.548 360.934   1
  28   4 -10 286.084 133.037   1
  28   4  -9 113.275 155.505   1
  -8  -4  26 514.717 209.030  -2
  28   4  -9 514.717 209.030   1
  28   4  -8 1328.42 168.684   1
  -6  -4  26 1553.17 207.444  -2
  28   4  -8 1553.17 207.444   1
  28   4  -7 895.837 120.455   1
  -4  -4  26 1051.13 155.864  -2
  28   4  -6 1051.13 155.864   1
  28   4  -5 58.1813 95.6051   1
  -2  -4  26 3852.63 145.025  -2
  28   4  -4 3852.63 145.025   1
  28   4  -3 364.379 99.5045   1
   0  -4  26 2406.54 139.699  -2
  28   4  -2 2406.54 139.699   1
  28   4  -1 74.0267 98.6798   1
   2  -4  26 4027.64 143.690  -2
  28   4   0 4027.64 143.690   1
  28  -4   1 28.6434 85.4738   1
   4  -4  26 102.329 65.8321  -2
  28   4   2 102.329 65.8321   1
  28  -4   3 4.67617 141.244   1
   6  -4  25 336.157 143.852  -2
  28   4   3 336.157 143.852   1
  28  -4   4 4151.47 105.199   1
   8   4  25 878.774 119.481  -2
  28  -4   5 878.774 119.481   1
  28  -4   6 4398.64 102.587   1
  10  -4  25 799.611 153.130  -2
  28   4   7 799.611 153.130   1
  28   4   8 10468.2 151.700   1
  12  -4  25 95.4416 67.9186  -2
  28   4   9 95.4416 67.9186   1
  28  -4  10 901.692 114.209   1
  14  -4  25 3853.23 162.277  -2
  28   4  11 3853.23 162.277   1
  28   4  12 41.7500 108.972   1
  16   4  25 949.463 146.241  -2
  28  -4  13 949.463 146.241   1
  28  -4  14 1461.75 112.129   1
  18  -4  25 1904.72 140.405  -2
  28   4  15 1904.72 140.405   1
  20  -4  24 811.857 131.110  -2
  28   4  16 811.857 131.110   1
  28  -4  17-36.6147 90.3589   1
  22  -4  24 1025.48 127.607  -2
  28   4  18 1025.48 127.607   1
  28   4  19 2286.47 95.1363   1
  24  -4  24 2357.98 153.105  -2
  28   4  20 2357.98 153.105   1
 -28  -6  28 129.120 191.117  -2
  28   6 -28 129.120 191.117   1
  28   6 -27-22.6066 166.982   1
 -26  -6  28 77.3827 235.118  -2
  28   6 -26 77.3827 235.118   1
  28   6 -25 51.9257 207.914   1
  28   6 -24-16.1031 221.880   1
  28   6 -23 106.568 243.429   1
  28   6 -22 117.430 250.348   1
  28   6 -21 275.510 263.627   1
  28   6 -20 436.314 279.188   1
 -18  -6  27 429.229 368.130  -2
  28   6 -19 429.229 368.130   1
  28   6 -18 595.125 276.336   1
 -16  -6  27 382.755 169.755  -2
  28   6 -17 382.755 169.755   1
  28   6 -16 110.278 95.0794   1
 -14  -6  27 1184.67 133.348  -2
  28   6 -15 1184.67 133.348   1
  28   6 -14 729.918 103.416   1
 -12  -6  27 1963.30 141.744  -2
  28   6 -13 1963.30 141.744   1
  28   6 -12 1222.90 109.879   1
  28   6 -11 2410.10 169.238   1
 -10  -6  27 3063.22 198.295  -2
  28   6 -11 3063.22 198.295   1
  28   6 -10 156.938 109.483   1
  28   6  -9 2025.23 118.367   1
  28   6  -8 265.603 173.419   1
  -6  -6  26 196.356 196.600  -2
  28   6  -8 196.356 196.600   1
  28   6  -7 186.408 114.732   1
  -4  -6  26 235.387 149.903  -2
  28   6  -6 235.387 149.903   1
  28   6  -5 780.779 119.043   1
  -2  -6  26 257.356 155.876  -2
  28   6  -4 257.356 155.876   1
  28   6  -3 146.773 118.970   1
   0  -6  26 998.647 162.110  -2
  28   6  -2 998.647 162.110   1
  28   6  -1 335.614 120.653   1
   2  -6  26 2559.17 168.170  -2
  28   6   0 2559.17 168.170   1
  28   6   1 100.958 118.145   1
   4  -6  26 817.940 158.736  -2
  28   6   2 817.940 158.736   1
  28   6   3 1203.74 205.625   1
   6  -6  25 1165.28 233.868  -2
  28   6   3 1165.28 233.868   1
  28  -6   4 276.318 109.414   1
   8  -6  25 3242.39 155.545  -2
  28   6   5 3242.39 155.545   1
  28   6   6 210.344 108.376   1
  10  -6  25 2457.32 153.777  -2
  28   6   7 2457.32 153.777   1
  28   6   8 911.564 108.905   1
  12  -6  25 433.337 63.2873  -2
  28   6   9 433.337 63.2873   1
  28   6  10 3332.10 116.640   1
  14  -6  25 2273.38 148.046  -2
  28   6  11 2273.38 148.046   1
  28   6  12 4469.06 118.869   1
  16  -6  25 845.748 147.040  -2
  28   6  13 845.748 147.040   1
  28   6  14 1473.39 111.027   1
  18  -6  25 435.910 132.168  -2
  28   6  15 435.910 132.168   1
  28   6  16 1022.20 139.382   1
  20  -6  24 1099.13 169.350  -2
  28   6  16 1099.13 169.350   1
  28   6  17 236.738 83.7080   1
  22  -6  24 2976.61 160.193  -2
  28   6  18 2976.61 160.193   1
  28   6  19 68.7113 93.5719   1
  28   8 -25 66.3075 151.664   1
  28   8 -24-48.0756 171.058   1
  28   8 -23 185.947 193.018   1
  28   8 -22-23.9085 202.648   1
  28   8 -21 51.8943 223.085   1
  28   8 -20 5.97157 233.553   1
 -18  -8  27 484.721 314.431  -2
  28   8 -19 484.721 314.431   1
  28   8 -18 220.685 106.554   1
 -16  -8  27 2081.07 159.336  -2
  28   8 -17 2081.07 159.336   1
  28   8 -16 194.607 117.716   1
 -14  -8  27 780.716 164.036  -2
  28   8 -15 780.716 164.036   1
  28   8 -14-20.3312 128.649   1
 -12  -8  27 30.2883 85.8743  -2
  28   8 -13 30.2883 85.8743   1
  28   8 -12 199.839 139.980   1
  28   8 -11 204.992 161.623   1
 -10  -8  27 683.251 346.160  -2
  28   8 -11 683.251 346.160   1
  28   8 -10 855.414 144.449   1
  28   8  -9 461.115 143.427   1
  28   8  -8 658.511 180.013   1
  -6  -8  26 1965.68 384.421  -2
  28   8  -8 1965.68 384.421   1
  28   8  -7 1670.67 163.589   1
  -4  -8  26 2652.44 212.220  -2
  28   8  -6 2652.44 212.220   1
  28   8  -5 95.0680 152.835   1
  -2  -8  26 52.9200 134.979  -2
  28   8  -4 52.9200 134.979   1
  28   8  -3 107.634 107.395   1
   0  -8  26 608.574 144.029  -2
  28   8  -2 608.574 144.029   1
  28   8  -1 1031.80 110.225   1
   2  -8  26 192.335 137.537  -2
  28   8   0 192.335 137.537   1
  28   8   1 502.303 107.684   1
   4  -8  26 2416.02 160.041  -2
  28   8   2 2416.02 160.041   1
  28   8   3 93.7439 184.240   1
   6  -8  25 407.532 197.138  -2
  28   8   3 407.532 197.138   1
  28   8   4 1736.48 126.315   1
   8  -8  25 1786.68 159.528  -2
  28   8   5 1786.68 159.528   1
  28   8   6 443.803 114.837   1
  10  -8  25 1957.36 161.041  -2
  28   8   7 1957.36 161.041   1
  28   8   8 2632.63 125.301   1
  12  -8  25 1257.51 150.300  -2
  28   8   9 1257.51 150.300   1
  28   8  10 1239.91 111.428   1
  14  -8  25 1697.72 141.627  -2
  28   8  11 1697.72 141.627   1
  28   8  12 2350.56 101.518   1
  16  -8  25 840.346 120.043  -2
  28   8  13 840.346 120.043   1
  28   8  14 1.46861 85.0890   1
 -18 -10  27-183.241 227.340  -2
  28  10 -19-183.241 227.340   1
  28  10 -18-117.734 83.4794   1
 -16 -10  27 58.1213 80.7470  -2
  28  10 -17 58.1213 80.7470   1
  28  10 -16 48.4461 98.6670   1
 -14 -10  27 371.654 137.822  -2
  28  10 -15 371.654 137.822   1
  28  10 -14 321.499 112.737   1
 -12 -10  27 2361.77 158.495  -2
  28  10 -13 2361.77 158.495   1
  28  10 -12 774.139 121.262   1
  28  10 -11 315.952 146.396   1
 -10 -10  27 721.815 280.230  -2
  28  10 -11 721.815 280.230   1
  28  10 -10 14.1311 121.223   1
  28  10  -9 479.261 236.923   1
  -8 -10  26 700.441 211.371  -2
  28  10  -9 700.441 211.371   1
  28  10  -8 330.102 155.740   1
  -6 -10  26 812.376 323.129  -2
  28  10  -8 812.376 323.129   1
  28  10  -7 849.168 134.223   1
  -4 -10  26 443.023 183.303  -2
  28  10  -6 443.023 183.303   1
  28  10  -5 1023.60 144.429   1
  -2 -10  26 2870.66 203.236  -2
  28  10  -4 2870.66 203.236   1
  28  10  -3 2.22422 141.270   1
   0 -10  26 1651.78 237.400  -2
  28  10  -2 1651.78 237.400   1
  28  10  -1 8.56430 160.417   1
   2 -10  26 587.023 221.685  -2
  28  10   0 587.023 221.685   1
  28  10   1 203.827 165.797   1
   4 -10  26 2372.95 227.276  -2
  28  10   2 2372.95 227.276   1
  28  10   3 1372.29 168.137   1
  28  10   4 2360.48 164.288   1
   8 -10  25 694.339 210.636  -2
  28  10   5 694.339 210.636   1
  28  10   6 707.440 145.871   1
  10 -10  25 1172.39 195.232  -2
  28  10   7 1172.39 195.232   1
  28  10   8 106.317 123.746   1
  12 -10  25 569.996 163.177  -2
  28  10   9 569.996 163.177   1
 -12 -12  27 33.5992 124.540  -2
  28  12 -13 33.5992 124.540   1
  28  12 -12-16.6618 101.353   1
  28  12 -11 36.0622 107.666   1
  28  12 -10 784.772 117.983   1
  28  12  -9-23.8856 114.469   1
  28  12  -8 87.7660 120.418   1
  28  12  -7 107.145 122.724   1
  -4 -12  26 2258.15 183.297  -2
  28  12  -6 2258.15 183.297   1
  28  12  -5 1100.65 136.841   1
  -2 -12  26 632.347 173.067  -2
  28  12  -4 632.347 173.067   1
  28  12  -3 4.68595 126.088   1
   0 -12  26 2408.29 180.109  -2
  28  12  -2 2408.29 180.109   1
  28  12  -1 100.070 126.063   1
   2 -12  26 228.700 158.200  -2
  28  12   0 228.700 158.200   1
  28  12   1 41.0300 110.569   1
   4 -12  26 254.586 148.419  -2
  28  12   2 254.586 148.419   1
  28  12   3 179.943 108.349   1
 -29  -1  29-60.0766 197.836  -2
  29   1 -29-60.0766 197.836   1
  29   1 -28 74.6203 168.575   1
 -27  -1  29 525.277 239.129  -2
  29   1 -27 525.277 239.129   1
  29   1 -26 62.3103 205.594   1
  29   1 -25 218.307 210.215   1
  29   1 -24 197.755 141.612   1
  29  -1 -23 136.654 143.969   1
  29  -1 -22 2.03847 147.511   1
  29  -1 -21 56.4841 154.096   1
 -19   1  28 559.487 207.015  -2
  29  -1 -20 559.487 207.015   1
  29  -1 -19 886.964 163.290   1
 -17   1  28 188.788 209.248  -2
  29  -1 -18 188.788 209.248   1
  29  -1 -17 1336.88 170.127   1
 -15  -1  28 1555.42 215.681  -2
  29   1 -16 1555.42 215.681   1
  29  -1 -15-111.308 155.460   1
 -13   1  28 210.283 201.511  -2
  29  -1 -14 210.283 201.511   1
  29   1 -13 72.9451 246.881   1
 -11  -1  28 485.468 305.777  -2
  29   1 -12 485.468 305.777   1
  29   1 -11 388.808 240.048   1
  29   1 -10 1538.22 255.739   1
  -7  -1  27 2117.73 322.589  -2
  29   1  -9 2117.73 322.589   1
  29   1  -8 547.244 243.137   1
  -5  -1  27 675.016 175.678  -2
  29   1  -7 675.016 175.678   1
  29   1  -6 1482.41 117.651   1
  -3  -1  27 7175.86 159.287  -2
  29   1  -5 7175.86 159.287   1
  29   1  -4 430.118 89.8737   1
  -1  -1  27 873.943 120.327  -2
  29   1  -3 873.943 120.327   1
  29   1  -2 410.284 91.5861   1
   1  -1  27 1812.75 122.707  -2
  29   1  -1 1812.75 122.707   1
  29   1   0 710.240 90.5976   1
   3  -1  27 6112.16 130.793  -2
  29   1   1 6112.16 130.793   1
  29  -1   2 1339.97 142.970   1
   5  -1  26 1885.66 188.049  -2
  29   1   2 1885.66 188.049   1
  29   1   3 307.125 98.3683   1
   7  -1  26 1633.00 133.336  -2
  29   1   4 1633.00 133.336   1
  29   1   5 727.958 99.6191   1
   9   1  26 820.891 129.050  -2
  29  -1   6 820.891 129.050   1
  29  -1   7 3375.17 108.340   1
  11   1  26 3657.65 141.729  -2
  29  -1   8 3657.65 141.729   1
  29  -1   9 32.7076 92.3767   1
  13   1  26 660.213 123.840  -2
  29  -1  10 660.213 123.840   1
  29  -1  11 931.103 94.3299   1
  15   1  26 5764.00 138.862  -2
  29  -1  12 5764.00 138.862   1
  29  -1  13 1597.16 95.1238   1
  17   1  26 1831.41 116.480  -2
  29  -1  14 1831.41 116.480   1
  19   1  25 4988.32 121.032  -2
  29  -1  15 4988.32 121.032   1
  29  -1  16 2177.48 85.4138   1
  21  -1  25 351.912 93.8548  -2
  29   1  17 351.912 93.8548   1
  29  -1  18 1260.27 86.4573   1
  23  -1  25 2469.24 108.316  -2
  29   1  19 2469.24 108.316   1
  29   1  20 292.220 68.1632   1
 -29  -3  29-82.6340 189.256  -2
  29   3 -29-82.6340 189.256   1
  29   3 -28 212.491 172.568   1
 -27  -3  29-62.1969 228.179  -2
  29   3 -27-62.1969 228.179   1
  29   3 -26 37.5928 200.702   1
  29   3 -25 157.568 223.414   1
  29   3 -24 66.0052 219.406   1
  29   3 -23-29.6676 239.227   1
  29   3 -22 187.256 252.003   1
  29   3 -21 64.5889 245.754   1
 -19  -3  28 1432.45 357.281  -2
  29   3 -20 1432.45 357.281   1
  29   3 -19 303.047 275.431   1
 -17  -3  28 193.666 342.365  -2
  29   3 -18 193.666 342.365   1
  29   3 -17 44.2616 257.227   1
 -15  -3  28 870.746 339.699  -2
  29   3 -16 870.746 339.699   1
  29   3 -15 202.800 262.230   1
 -13  -3  28 855.750 350.593  -2
  29   3 -14 855.750 350.593   1
  29   3 -13 65.9987 266.262   1
 -11  -3  28 118.846 341.209  -2
  29   3 -12 118.846 341.209   1
  29   3 -11 61.0410 118.364   1
  29   3 -10 174.193 252.434   1
  -9  -3  27 738.652 200.021  -2
  29   3 -10 738.652 200.021   1
  29   3  -9 205.295 154.265   1
  -7  -3  27 613.289 350.074  -2
  29   3  -9 613.289 350.074   1
  29   3  -8 56.5048 111.341   1
  -5  -3  27 1075.80 156.188  -2
  29   3  -7 1075.80 156.188   1
  29   3  -6 4459.32 135.719   1
  -3  -3  27 2111.56 141.491  -2
  29   3  -5 2111.56 141.491   1
  29   3  -4 1323.65 105.295   1
  -1  -3  27 3787.95 147.490  -2
  29   3  -3 3787.95 147.490   1
  29   3  -2 959.367 103.556   1
   1  -3  27 1177.08 134.467  -2
  29   3  -1 1177.08 134.467   1
  29   3   0 347.179 87.4949   1
   3  -3  27 1385.72 116.135  -2
  29   3   1 1385.72 116.135   1
  29  -3   2 595.549 135.720   1
   5  -3  26 711.198 150.961  -2
  29   3   2 711.198 150.961   1
  29   3   3 618.535 93.7686   1
   7  -3  26 3222.37 132.009  -2
  29   3   4 3222.37 132.009   1
  29  -3   5 494.425 91.8501   1
   9   3  26 287.629 118.953  -2
  29  -3   6 287.629 118.953   1
  29  -3   7 1098.53 90.9596   1
  11   3  26 515.461 118.007  -2
  29  -3   8 515.461 118.007   1
  29  -3   9 84.7795 83.3105   1
  13   3  26 1931.07 119.359  -2
  29  -3  10 1931.07 119.359   1
  29  -3  11 255.158 82.8875   1
  15   3  26 1742.46 114.543  -2
  29  -3  12 1742.46 114.543   1
  29   3  13 530.293 106.667   1
  17   3  26 673.452 133.775  -2
  29  -3  14 673.452 133.775   1
  19  -3  25 796.337 132.654  -2
  29   3  15 796.337 132.654   1
  29   3  16 3794.83 106.441   1
  21  -3  25 1997.72 121.232  -2
  29   3  17 1997.72 121.232   1
  29   3  18 3132.27 89.9169   1
  23  -3  25 239.609 108.799  -2
  29   3  19 239.609 108.799   1
  29   3  20 105.542 95.5669   1
  29   5 -28 67.5378 148.556   1
 -27  -5  29 167.386 201.324  -2
  29   5 -27 167.386 201.324   1
  29   5 -26-125.215 186.259   1
  29   5 -25 183.729 199.263   1
  29   5 -24 38.2517 227.902   1
  29   5 -23 31.8906 229.018   1
  29   5 -22 338.026 116.794   1
  29   5 -21 106.669 249.280   1
 -19  -5  28 430.916 354.873  -2
  29   5 -20 430.916 354.873   1
  29   5 -19 179.154 279.597   1
 -17  -5  28 2531.99 372.865  -2
  29   5 -18 2531.99 372.865   1
  29   5 -17 1508.10 299.967   1
 -15  -5  28 495.414 188.781  -2
  29   5 -16 495.414 188.781   1
  29   5 -15 175.854 140.402   1
 -13  -5  28 551.675 129.234  -2
  29   5 -14 551.675 129.234   1
  29   5 -13 29.6050 95.0191   1
  29   5 -12 74.3735 138.162   1
 -11  -5  28 27.7264 187.023  -2
  29   5 -12 27.7264 187.023   1
  29   5 -11 282.427 104.024   1
  29   5 -10 2168.18 165.075   1
  -9  -5  27 3214.49 228.577  -2
  29   5 -10 3214.49 228.577   1
  29   5  -9 902.631 166.972   1
  -7  -5  27 1223.07 206.435  -2
  29   5  -9 1223.07 206.435   1
  29   5  -8 115.082 112.072   1
  -5  -5  27 2065.18 128.473  -2
  29   5  -7 2065.18 128.473   1
  29   5  -6 251.080 94.3655   1
  -3  -5  27 989.072 126.627  -2
  29   5  -5 989.072 126.627   1
  29   5  -4 975.180 99.6255   1
  -1  -5  27 2550.75 138.464  -2
  29   5  -3 2550.75 138.464   1
  29   5  -2 1754.22 103.765   1
   1  -5  27 2052.48 133.841  -2
  29   5  -1 2052.48 133.841   1
  29   5   0 492.387 126.287   1
   3  -5  27 3843.76 167.985  -2
  29   5   1 3843.76 167.985   1
  29  -5   2 1549.67 138.557   1
   5  -5  26 2406.23 209.173  -2
  29   5   2 2406.23 209.173   1
  29  -5   3 102.371 105.291   1
   7  -5  26 645.893 144.379  -2
  29   5   4 645.893 144.379   1
  29   5   5 205.431 103.155   1
   9   5  26 1036.29 148.728  -2
  29  -5   6 1036.29 148.728   1
  29  -5   7 18.1438 106.970   1
  11   5  26 1536.41 150.282  -2
  29  -5   8 1536.41 150.282   1
  29   5   9-11.5976 105.423   1
  13   5  26 475.290 138.172  -2
  29  -5  10 475.290 138.172   1
  29   5  11 161.054 99.5968   1
  15  -5  26 360.915 134.818  -2
  29   5  12 360.915 134.818   1
  29   5  13 1368.38 107.087   1
  17  -5  26 372.804 124.691  -2
  29   5  14 372.804 124.691   1
  29   5  15 2353.39 166.924   1
  19  -5  25 2482.60 196.227  -2
  29   5  15 2482.60 196.227   1
  29   5  16 41.0951 92.6395   1
  21  -5  25 1325.39 115.937  -2
  29   5  17 1325.39 115.937   1
  29   5  18 131.087 107.362   1
  29   7 -25-52.3233 155.511   1
  29   7 -24 76.9691 173.986   1
  29   7 -23 35.8370 203.033   1
  29   7 -22-34.6973 212.844   1
  29   7 -21 46.2476 234.821   1
 -19  -7  28 244.842 312.568  -2
  29   7 -20 244.842 312.568   1
  29   7 -19-7.32415 239.175   1
 -17  -7  28 82.7296 130.661  -2
  29   7 -18 82.7296 130.661   1
  29   7 -17 115.020 107.992   1
 -15  -7  28 452.537 156.043  -2
  29   7 -16 452.537 156.043   1
  29   7 -15 49.7058 120.745   1
 -13  -7  28 1191.01 162.711  -2
  29   7 -14 1191.01 162.711   1
  29   7 -13 757.217 126.903   1
  29   7 -12 32.5604 144.971   1
 -11  -7  28-16.0613 351.073  -2
  29   7 -12-16.0613 351.073   1
  29   7 -11 295.907 99.3347   1
  29   7 -10 66.4047 103.516   1
  29   7  -9 1.80272 165.799   1
  -7  -7  27 592.538 175.734  -2
  29   7  -9 592.538 175.734   1
  29   7  -8 36.1212 107.024   1
  -5  -7  27 785.195 148.129  -2
  29   7  -7 785.195 148.129   1
  29   7  -6 725.077 113.338   1
  -3  -7  27 2015.05 157.484  -2
  29   7  -5 2015.05 157.484   1
  29   7  -4 2140.25 122.941   1
  -1  -7  27 266.337 149.348  -2
  29   7  -3 266.337 149.348   1
  29   7  -2 1742.85 121.529   1
   1  -7  27 3406.43 162.320  -2
  29   7  -1 3406.43 162.320   1
  29   7   0 1267.64 119.647   1
   3  -7  27 3060.26 155.822  -2
  29   7   1 3060.26 155.822   1
  29   7   2 1027.88 202.025   1
   5  -7  26 1365.89 217.837  -2
  29   7   2 1365.89 217.837   1
  29   7   3 56.2460 122.109   1
   7  -7  26 3682.18 177.227  -2
  29   7   4 3682.18 177.227   1
  29   7   5 64.2745 117.592   1
   9  -7  26 554.560 158.574  -2
  29   7   6 554.560 158.574   1
  29   7   7 167.236 117.263   1
  11  -7  26 295.758 153.980  -2
  29   7   8 295.758 153.980   1
  29   7   9 3239.05 129.430   1
  13  -7  26 2044.05 155.698  -2
  29   7  10 2044.05 155.698   1
  29   7  11 3011.21 118.636   1
  15  -7  26 660.790 135.182  -2
  29   7  12 660.790 135.182   1
  29   7  13 1909.88 103.620   1
  17  -7  26 598.267 114.609  -2
  29   7  14 598.267 114.609   1
  19  -7  25 481.131 147.018  -2
  29   7  15 481.131 147.018   1
  29   7  16 1732.44 110.641   1
  29   9 -21 445.393 173.884   1
 -19  -9  28 345.954 245.839  -2
  29   9 -20 345.954 245.839   1
  29   9 -19 134.021 198.174   1
 -17  -9  28 324.532 277.198  -2
  29   9 -18 324.532 277.198   1
  29   9 -17 196.165 98.4346   1
 -15  -9  28 288.009 135.439  -2
  29   9 -16 288.009 135.439   1
  29   9 -15-24.0833 104.249   1
 -13  -9  28 676.404 152.530  -2
  29   9 -14 676.404 152.530   1
  29   9 -13 985.116 124.106   1
  29   9 -12 182.177 146.060   1
 -11  -9  28 398.013 301.264  -2
  29   9 -12 398.013 301.264   1
  29   9 -11 89.6730 126.717   1
  29   9 -10 601.169 130.164   1
  29   9  -9 61.1214 158.791   1
  -7  -9  27 1034.01 344.603  -2
  29   9  -9 1034.01 344.603   1
  29   9  -8 1225.74 138.240   1
  -5  -9  27 1506.23 194.458  -2
  29   9  -7 1506.23 194.458   1
  29   9  -6 219.577 136.616   1
  -3  -9  27 883.168 191.380  -2
  29   9  -5 883.168 191.380   1
  29   9  -4 350.334 141.917   1
  -1  -9  27 835.146 194.324  -2
  29   9  -3 835.146 194.324   1
  29   9  -2 70.4395 144.103   1
   1  -9  27 1725.48 245.329  -2
  29   9  -1 1725.48 245.329   1
  29   9   0 630.322 175.007   1
   3  -9  27 3191.36 241.367  -2
  29   9   1 3191.36 241.367   1
  29   9   2 303.995 174.466   1
  29   9   3 277.082 167.581   1
   7  -9  26 309.495 219.347  -2
  29   9   4 309.495 219.347   1
  29   9   5 11.0201 156.564   1
   9  -9  26 1832.04 225.480  -2
  29   9   6 1832.04 225.480   1
  29   9   7 74.6619 145.826   1
  11  -9  26 1230.36 199.115  -2
  29   9   8 1230.36 199.115   1
  29   9   9-65.8706 137.685   1
  13  -9  26 1047.32 170.297  -2
  29   9  10 1047.32 170.297   1
  29   9  11 42.9730 113.251   1
  29  11 -15 54.2484 91.0270   1
  29  11 -14 93.8088 158.297   1
 -13 -11  28 533.394 130.001  -2
  29  11 -14 533.394 130.001   1
  29  11 -13-11.9364 89.3516   1
  29  11 -12 76.4465 94.1079   1
  29  11 -11 293.293 100.701   1
  29  11 -10 49.7159 102.355   1
  29  11  -9 128.291 124.118   1
  -7 -11  27 250.667 247.237  -2
  29  11  -9 250.667 247.237   1
  29  11  -8 172.480 133.262   1
  -5 -11  27 258.991 180.568  -2
  29  11  -7 258.991 180.568   1
  29  11  -6 112.784 138.951   1
  -3 -11  27 7.09018 186.657  -2
  29  11  -5 7.09018 186.657   1
  29  11  -4 658.951 146.983   1
  -1 -11  27 781.224 192.147  -2
  29  11  -3 781.224 192.147   1
  29  11  -2 18.2439 139.701   1
   1 -11  27 1125.43 189.325  -2
  29  11  -1 1125.43 189.325   1
  29  11   0 292.287 133.946   1
   3 -11  27 795.966 173.483  -2
  29  11   1 795.966 173.483   1
  29  11   2 504.916 132.209   1
  29  11   3 224.514 127.702   1
   7 -11  26 312.588 162.798  -2
  29  11   4 312.588 162.798   1
  29  11   5-27.0245 111.597   1
  30   0 -24 892.050 198.828   1
  30   0 -22 12.7530 195.370   1
  30   0 -20 1213.06 222.949   1
  30   0 -18-69.4792 212.186   1
  30   0 -16 290.615 224.566   1
  30   0 -14 971.631 230.880   1
  30   0 -12 575.228 220.725   1
  -8   0  28 3168.55 298.274  -2
  30   0 -10 3168.55 298.274   1
  -6   0  28 3134.48 295.339  -2
  30   0  -8 3134.48 295.339   1
  -4   0  28 1168.63 204.686  -2
  30   0  -6 1168.63 204.686   1
  -2   0  28 3430.10 167.389  -2
  30   0  -4 3430.10 167.389   1
   0   0  28 2385.59 160.883  -2
  30   0  -2 2385.59 160.883   1
   2   0  28 459.521 182.165  -2
  30   0   0 459.521 182.165   1
  30   0   2 593.361 143.414   1
  30   0   4 34.9879 133.870   1
  30   0   6 2097.53 138.873   1
  30   0   8 3121.55 145.887   1
  30   0  10 216.819 129.359   1
  30   0  12 13271.5 179.658   1
  18   0  26 4853.44 167.121  -2
  30   0  14 4853.44 167.121   1
  20   0  26 1271.30 135.878  -2
  30   0  16 1271.30 135.878   1
  22   0  26 854.086 112.670  -2
  30   0  18 854.086 112.670   1
  30   2 -27-14.0369 169.641   1
  30   2 -26 143.821 189.414   1
  30   2 -25 72.4628 196.682   1
  30   2 -24-56.7655 210.512   1
  30   2 -23 56.8499 208.578   1
  30   2 -22 33.3057 223.047   1
 -20  -2  29 1126.36 312.813  -2
  30   2 -21 1126.36 312.813   1
  30   2 -20 33.9176 241.067   1
 -18  -2  29 696.595 329.651  -2
  30   2 -19 696.595 329.651   1
  30   2 -18 85.3054 253.435   1
 -16  -2  29 266.435 329.769  -2
  30   2 -17 266.435 329.769   1
  30   2 -16 68.9507 236.181   1
 -14  -2  29 343.144 330.105  -2
  30   2 -15 343.144 330.105   1
  30   2 -14-82.6145 252.523   1
 -12  -2  29 888.645 338.065  -2
  30   2 -13 888.645 338.065   1
  30   2 -12 506.131 242.534   1
  30   2 -11 684.381 266.470   1
  -8  -2  28 229.947 332.955  -2
  30   2 -10 229.947 332.955   1
  30   2  -9 2580.32 141.832   1
  -6  -2  28 1378.95 152.751  -2
  30   2  -8 1378.95 152.751   1
  30   2  -7 4648.80 130.356   1
  -4  -2  28 937.857 134.701  -2
  30   2  -6 937.857 134.701   1
  30   2  -5 1098.99 102.803   1
  -2  -2  28 2320.28 143.093  -2
  30   2  -4 2320.28 143.093   1
  30   2  -3 249.679 100.030   1
   0  -2  28 804.946 115.917  -2
  30   2  -2 804.946 115.917   1
  30   2  -1 31.9952 86.7985   1
   2  -2  28 1338.58 118.069  -2
  30   2   0 1338.58 118.069   1
  30  -2   1 812.618 140.054   1
   4  -2  27 3335.81 163.715  -2
  30   2   1 3335.81 163.715   1
  30   2   2 1288.34 98.7485   1
   6  -2  27 1379.74 128.168  -2
  30   2   3 1379.74 128.168   1
  30   2   4-8.07614 91.9806   1
   8   2  27 1701.36 128.419  -2
  30  -2   5 1701.36 128.419   1
  30  -2   6 3384.15 102.913   1
  10   2  27 1441.79 123.409  -2
  30  -2   7 1441.79 123.409   1
  30  -2   8 138.240 88.8820   1
  12   2  27 8603.52 147.344  -2
  30  -2   9 8603.52 147.344   1
  30  -2  10 999.049 87.2901   1
  14   2  27 3809.29 121.651  -2
  30  -2  11 3809.29 121.651   1
  30  -2  12 213.623 81.6665   1
  16   2  27 456.295 102.404  -2
  30  -2  13 456.295 102.404   1
  18   2  26 1723.27 103.804  -2
  30  -2  14 1723.27 103.804   1
  30   2  15 3110.36 104.277   1
  20   2  26 1487.85 121.706  -2
  30  -2  16 1487.85 121.706   1
  30  -2  17 773.019 82.3522   1
  22  -2  26 88.6674 97.2135  -2
  30   2  18 88.6674 97.2135   1
  30   2  19 56.4430 95.1860   1
  30   4 -28-6.02236 141.857   1
  30   4 -27 21.4596 163.312   1
  30   4 -26 206.049 183.437   1
  30   4 -25 22.1489 99.3246   1
  30   4 -24 23.5319 204.025   1
  30   4 -23 58.8807 226.813   1
  30   4 -22 177.091 238.200   1
 -20  -4  29-79.8069 323.107  -2
  30   4 -21-79.8069 323.107   1
  30   4 -20 80.7636 252.775   1
 -18  -4  29 572.030 335.315  -2
  30   4 -19 572.030 335.315   1
  30   4 -18 277.478 274.783   1
 -16  -4  29 420.665 363.198  -2
  30   4 -17 420.665 363.198   1
  30   4 -16 500.450 265.063   1
 -14  -4  29 405.375 348.143  -2
  30   4 -15 405.375 348.143   1
  30   4 -14 272.390 261.030   1
  30   4 -13 761.464 175.324   1
 -12  -4  29 804.863 345.329  -2
  30   4 -13 804.863 345.329   1
  30   4 -12 79.6730 96.8385   1
  30   4 -11 279.901 101.725   1
  30   4 -10 1568.41 153.528   1
  -8  -4  28 1677.80 213.107  -2
  30   4 -10 1677.80 213.107   1
  30   4  -9 228.152 109.134   1
  -6  -4  28 2468.82 158.168  -2
  30   4  -8 2468.82 158.168   1
  30   4  -7 111.172 93.0096   1
  -4  -4  28 1062.36 129.540  -2
  30   4  -6 1062.36 129.540   1
  30   4  -5 104.717 97.1066   1
  -2  -4  28 417.217 127.524  -2
  30   4  -4 417.217 127.524   1
  30   4  -3 323.236 96.7595   1
   0  -4  28 747.449 129.680  -2
  30   4  -2 747.449 129.680   1
  30   4  -1 25.5719 94.9874   1
   2  -4  28 351.584 123.649  -2
  30   4   0 351.584 123.649   1
  30  -4   1 154.893 129.632   1
   4  -4  27 323.770 145.491  -2
  30   4   1 323.770 145.491   1
  30   4   2 1251.91 88.8433   1
   6  -4  27 130.638 113.727  -2
  30   4   3 130.638 113.727   1
  30  -4   4 1295.78 88.5532   1
   8   4  27 953.130 113.826  -2
  30  -4   5 953.130 113.826   1
  30   4   6 759.690 106.773   1
  10  -4  27 56.8236 75.1055  -2
  30   4   7 56.8236 75.1055   1
  30   4   8 958.285 107.516   1
  12  -4  27 3188.99 152.060  -2
  30   4   9 3188.99 152.060   1
  30  -4  10 588.732 105.041   1
  14  -4  27 1420.97 135.338  -2
  30   4  11 1420.97 135.338   1
  30   4  12 3273.73 110.323   1
  16  -4  27 352.304 125.185  -2
  30   4  13 352.304 125.185   1
  30   4  14 296.445 158.282   1
  18  -4  26 472.899 146.983  -2
  30   4  14 472.899 146.983   1
  30   4  15 296.089 85.2536   1
  20  -4  26 168.794 119.604  -2
  30   4  16 168.794 119.604   1
  30   4  17 757.816 83.2536   1
  22  -4  26 615.235 132.228  -2
  30   4  18 615.235 132.228   1
  30   6 -26 85.0652 145.423   1
  30   6 -25-7.04811 166.381   1
  30   6 -24 29.4544 179.726   1
  30   6 -23 50.5328 203.902   1
  30   6 -22-5.42482 210.872   1
 -20  -6  29 199.410 304.105  -2
  30   6 -21 199.410 304.105   1
  30   6 -20-7.04078 236.360   1
 -18  -6  29 181.220 317.366  -2
  30   6 -19 181.220 317.366   1
  30   6 -18 433.061 267.531   1
 -16  -6  29 342.952 158.764  -2
  30   6 -17 342.952 158.764   1
  30   6 -16 519.083 127.159   1
 -14  -6  29 397.877 117.577  -2
  30   6 -15 397.877 117.577   1
  30   6 -14 540.907 94.0305   1
  30   6 -13 294.226 104.088   1
 -12  -6  29 721.082 346.439  -2
  30   6 -13 721.082 346.439   1
  30   6 -12 18.0155 99.8670   1
  30   6 -11 146.691 99.7184   1
 -10  -6  28 434.958 208.257  -2
  30   6 -11 434.958 208.257   1
  30   6 -10 305.923 162.097   1
  -8  -6  28 668.696 133.889  -2
  30   6 -10 668.696 133.889   1
  30   6  -9 819.398 88.0241   1
  -6  -6  28 1590.05 150.935  -2
  30   6  -8 1590.05 150.935   1
  30   6  -7 2356.56 122.059   1
  -4  -6  28 510.451 149.705  -2
  30   6  -6 510.451 149.705   1
  30   6  -5 809.239 118.703   1
  -2  -6  28 1859.06 162.025  -2
  30   6  -4 1859.06 162.025   1
  30   6  -3 746.146 121.246   1
   0  -6  28 1922.27 161.201  -2
  30   6  -2 1922.27 161.201   1
  30   6  -1 402.063 117.901   1
   2  -6  28 470.988 150.013  -2
  30   6   0 470.988 150.013   1
  30   6   1 197.253 185.844   1
   4  -6  27 457.528 191.909  -2
  30   6   1 457.528 191.909   1
  30   6   2 700.074 128.596   1
   6  -6  27 694.120 166.208  -2
  30   6   3 694.120 166.208   1
  30   6   4 422.325 122.093   1
   8  -6  27 1722.62 140.140  -2
  30   6   5 1722.62 140.140   1
  30   6   6 387.108 101.439   1
  10  -6  27 2342.17 140.777  -2
  30   6   7 2342.17 140.777   1
  30   6   8 1327.90 102.649   1
  12  -6  27 3983.23 173.825  -2
  30   6   9 3983.23 173.825   1
  30   6  10 56.7768 111.045   1
  14  -6  27 3235.86 152.240  -2
  30   6  11 3235.86 152.240   1
  30   6  12 73.5405 101.374   1
  16  -6  27 478.414 124.876  -2
  30   6  13 478.414 124.876   1
  30   6  14 1352.21 144.692   1
  18  -6  26 1644.65 167.473  -2
  30   6  14 1644.65 167.473   1
  30   6  15 422.670 82.8032   1
  20  -6  26 2778.28 146.300  -2
  30   6  16 2778.28 146.300   1
  30   8 -23-13.2781 146.054   1
  30   8 -22 111.917 162.612   1
 -20  -8  29 622.145 252.841  -2
  30   8 -21 622.145 252.841   1
  30   8 -20 105.276 196.852   1
 -18  -8  29 953.289 277.233  -2
  30   8 -19 953.289 277.233   1
  30   8 -18 48.7363 215.886   1
 -16  -8  29 239.557 304.304  -2
  30   8 -17 239.557 304.304   1
  30   8 -16 1.86656 99.1307   1
 -14  -8  29 67.2515 137.450  -2
  30   8 -15 67.2515 137.450   1
  30   8 -14 608.169 118.762   1
  30   8 -13 639.226 141.390   1
 -12  -8  29 637.913 309.743  -2
  30   8 -13 637.913 309.743   1
  30   8 -12 1021.89 128.840   1
  30   8 -11 570.681 258.746   1
 -10  -8  28 927.949 206.341  -2
  30   8 -11 927.949 206.341   1
  30   8 -10 110.285 156.238   1
  -8  -8  28 1047.93 348.845  -2
  30   8 -10 1047.93 348.845   1
  30   8  -9 340.233 133.967   1
  -6  -8  28 1033.16 190.949  -2
  30   8  -8 1033.16 190.949   1
  30   8  -7 336.960 143.808   1
  -4  -8  28 456.943 193.399  -2
  30   8  -6 456.943 193.399   1
  30   8  -5 29.7280 136.254   1
  -2  -8  28 570.283 193.575  -2
  30   8  -4 570.283 193.575   1
  30   8  -3 691.681 102.258   1
   0  -8  28 205.468 126.663  -2
  30   8  -2 205.468 126.663   1
  30   8  -1 978.062 102.084   1
   2  -8  28 221.752 136.108  -2
  30   8   0 221.752 136.108   1
  30   8   1 87.9899 178.223   1
   4  -8  27 417.257 174.537  -2
  30   8   1 417.257 174.537   1
  30   8   2 290.269 106.160   1
   6  -8  27 1898.73 147.825  -2
  30   8   3 1898.73 147.825   1
  30   8   4 957.038 107.959   1
   8  -8  27 2011.38 148.552  -2
  30   8   5 2011.38 148.552   1
  30   8   6 730.739 105.524   1
  10  -8  27 601.182 49.4774  -2
  30   8   7 601.182 49.4774   1
  30   8   8 150.707 94.9480   1
  12  -8  27 322.504 121.550  -2
  30   8   9 322.504 121.550   1
  30   8  10 185.670 87.8343   1
  14  -8  27 453.468 108.666  -2
  30   8  11 453.468 108.666   1
  30   8  12 948.938 117.454   1
 -16 -10  29 0.43200 202.207  -2
  30  10 -17 0.43200 202.207   1
  30  10 -16 903.725 172.974   1
 -14 -10  29 552.370 110.354  -2
  30  10 -15 552.370 110.354   1
  30  10 -14 73.7979 87.4026   1
  30  10 -13-0.27539 113.209   1
 -12 -10  29 21.4147 239.692  -2
  30  10 -13 21.4147 239.692   1
  30  10 -12 9.37510 102.272   1
  30  10 -11 61.2998 105.207   1
  30  10 -10-33.2501 130.850   1
  -8 -10  28 68.3026 264.363  -2
  30  10 -10 68.3026 264.363   1
  30  10  -9-17.8024 107.991   1
  -6 -10  28 413.069 155.761  -2
  30  10  -8 413.069 155.761   1
  30  10  -7 0.23482 118.419   1
  -4 -10  28 1782.25 170.452  -2
  30  10  -6 1782.25 170.452   1
  30  10  -5 438.762 151.753   1
  -2 -10  28 2360.23 221.206  -2
  30  10  -4 2360.23 221.206   1
  30  10  -3 1089.98 156.982   1
   0 -10  28 1217.75 201.620  -2
  30  10  -2 1217.75 201.620   1
  30  10  -1 22.8293 145.039   1
   2 -10  28 1645.69 199.104  -2
  30  10   0 1645.69 199.104   1
  30  10   1 319.373 145.834   1
  30  10   2 959.789 149.586   1
   6 -10  27 171.069 188.347  -2
  30  10   3 171.069 188.347   1
  30  10   4 75.5118 129.231   1
   8 -10  27 1130.24 184.209  -2
  30  10   5 1130.24 184.209   1
  30  10   6 735.672 125.213   1
  10 -10  27 2430.28 162.780  -2
  30  10   7 2430.28 162.780   1
  30  12  -7 766.310 103.286   1
  -4 -12  28 1556.46 140.698  -2
  30  12  -6 1556.46 140.698   1
  30  12  -5-52.8234 98.0989   1
  31   1 -26 215.085 158.789   1
  31   1 -25 119.129 173.658   1
  31   1 -24 252.867 181.152   1
  31   1 -23-58.0241 197.391   1
 -21  -1  30 240.046 272.106  -2
  31   1 -22 240.046 272.106   1
  31   1 -21-56.0592 208.780   1
 -19  -1  30 182.354 287.231  -2
  31   1 -20 182.354 287.231   1
  31   1 -19 720.589 216.909   1
 -17  -1  30 914.308 301.829  -2
  31   1 -18 914.308 301.829   1
  31   1 -17 388.149 234.637   1
 -15  -1  30 401.284 293.426  -2
  31   1 -16 401.284 293.426   1
  31   1 -15 171.226 236.017   1
 -13  -1  30 295.380 304.731  -2
  31   1 -14 295.380 304.731   1
  31   1 -13 918.155 229.582   1
  31   1 -12 858.108 244.010   1
  -9  -1  29 985.441 307.890  -2
  31   1 -11 985.441 307.890   1
  31   1 -10 1968.56 245.682   1
  -7  -1  29 1781.12 214.829  -2
  31   1  -9 1781.12 214.829   1
  31   1  -8 626.756 129.420   1
  -5  -1  29 1817.84 134.655  -2
  31   1  -7 1817.84 134.655   1
  31   1  -6 153.541 97.6255   1
  -3  -1  29 3990.11 147.661  -2
  31   1  -5 3990.11 147.661   1
  31   1  -4 237.498 103.045   1
  -1  -1  29 4233.33 126.451  -2
  31   1  -3 4233.33 126.451   1
  31   1  -2 1596.75 95.1165   1
   1  -1  29 6157.63 125.522  -2
  31   1  -1 6157.63 125.522   1
  31  -1   0 1282.09 139.121   1
   3  -1  28 1577.99 163.766  -2
  31   1   0 1577.99 163.766   1
  31   1   1 488.550 99.1486   1
   5  -1  28 1838.88 129.449  -2
  31   1   2 1838.88 129.449   1
  31   1   3 1259.49 97.1534   1
   7  -1  28 1811.51 128.799  -2
  31   1   4 1811.51 128.799   1
  31  -1   5 808.555 94.0345   1
   9   1  28 1326.33 123.925  -2
  31  -1   6 1326.33 123.925   1
  31   1   7 48.4102 87.8349   1
  11   1  28 3794.63 129.973  -2
  31  -1   8 3794.63 129.973   1
  31  -1   9 841.917 87.3132   1
  13   1  28 371.209 109.086  -2
  31  -1  10 371.209 109.086   1
  31  -1  11 76.1426 80.4330   1
  15   1  28 296.791 101.737  -2
  31  -1  12 296.791 101.737   1
  17   1  27 1527.99 105.230  -2
  31  -1  13 1527.99 105.230   1
  31  -1  14 826.436 73.6553   1
  19   1  27 285.192 87.9900  -2
  31  -1  15 285.192 87.9900   1
  31   1  16 707.959 79.2503   1
  21  -1  27 4079.92 109.079  -2
  31   1  17 4079.92 109.079   1
  31  -1  18 127.757 87.0572   1
  31   3 -27 32.5212 144.978   1
  31   3 -26 62.2614 86.2091   1
  31   3 -25-27.0273 188.380   1
  31   3 -24 213.269 202.111   1
  31   3 -23 61.4634 210.443   1
 -21  -3  30 468.855 296.956  -2
  31   3 -22 468.855 296.956   1
  31   3 -21 247.432 227.369   1
 -19  -3  30 160.556 307.888  -2
  31   3 -20 160.556 307.888   1
  31   3 -19-0.72411 244.218   1
 -17  -3  30 1341.73 341.450  -2
  31   3 -18 1341.73 341.450   1
  31   3 -17 18.1016 240.279   1
 -15  -3  30 496.288 328.207  -2
  31   3 -16 496.288 328.207   1
  31   3 -15 64.7495 251.298   1
 -13  -3  30 1067.87 335.337  -2
  31   3 -14 1067.87 335.337   1
  31   3 -13 105.185 237.498   1
  31   3 -12 54.3390 145.372   1
  -9  -3  29 584.802 195.938  -2
  31   3 -11 584.802 195.938   1
  31   3 -10 308.344 106.243   1
  -7  -3  29 444.541 137.955  -2
  31   3  -9 444.541 137.955   1
  31   3  -8 130.655 92.0677   1
  -5  -3  29 596.480 126.980  -2
  31   3  -7 596.480 126.980   1
  31   3  -6 494.294 99.0356   1
  -3  -3  29 3985.67 146.288  -2
  31   3  -5 3985.67 146.288   1
  31   3  -4 118.569 98.7825   1
  -1  -3  29 1437.46 132.325  -2
  31   3  -3 1437.46 132.325   1
  31   3  -2 862.849 102.415   1
   1  -3  29 1730.87 133.718  -2
  31   3  -1 1730.87 133.718   1
  31  -3   0 2414.63 141.328   1
   3  -3  28 3247.06 160.612  -2
  31   3   0 3247.06 160.612   1
  31   3   1 545.072 85.4815   1
   5  -3  28 787.549 118.581  -2
  31   3   2 787.549 118.581   1
  31   3   3 280.009 86.2076   1
   7   3  28 363.170 114.305  -2
  31  -3   4 363.170 114.305   1
  31  -3   5 314.400 82.9770   1
   9   3  28 1468.18 113.886  -2
  31  -3   6 1468.18 113.886   1
  31  -3   7 249.836 79.2862   1
  11   3  28 1657.70 110.316  -2
  31  -3   8 1657.70 110.316   1
  31  -3   9 120.349 77.9233   1
  13  -3  28 195.443 129.768  -2
  31   3  10 195.443 129.768   1
  31   3  11 180.895 96.4428   1
  15  -3  28 808.134 122.174  -2
  31   3  12 808.134 122.174   1
  31   3  13-0.37130 156.348   1
  17  -3  27 590.131 144.628  -2
  31   3  13 590.131 144.628   1
  31   3  14 803.463 89.7964   1
  19   3  27-42.5892 107.479  -2
  31  -3  15-42.5892 107.479   1
  31   3  16 1460.58 78.0136   1
  21  -3  27 671.560 104.291  -2
  31   3  17 671.560 104.291   1
  31   5 -26 113.072 146.855   1
  31   5 -25 93.0030 165.625   1
  31   5 -24 64.5456 174.090   1
  31   5 -23 177.274 200.315   1
 -21  -5  30-167.556 280.888  -2
  31   5 -22-167.556 280.888   1
  31   5 -21 112.043 105.843   1
 -19  -5  30 238.434 150.347  -2
  31   5 -20 238.434 150.347   1
  31   5 -19 82.4668 118.203   1
 -17  -5  30 33.2411 156.406  -2
  31   5 -18 33.2411 156.406   1
  31   5 -17 311.701 128.034   1
 -15  -5  30 280.495 165.011  -2
  31   5 -16 280.495 165.011   1
  31   5 -15 3.30736 131.706   1
  31   5 -14 15.7680 156.800   1
 -13  -5  30 115.112 345.592  -2
  31   5 -14 115.112 345.592   1
  31   5 -13 69.3099 92.2958   1
  31   5 -12 45.1986 95.6078   1
  31   5 -11-21.7544 109.863   1
  -9  -5  29 387.424 356.480  -2
  31   5 -11 387.424 356.480   1
  31   5 -10 169.961 85.6153   1
  -7  -5  29 46.1355 92.6700  -2
  31   5  -9 46.1355 92.6700   1
  31   5  -8 9.85266 87.5153   1
  -5  -5  29 98.9499 89.0365  -2
  31   5  -7 98.9499 89.0365   1
  31   5  -6 453.804 93.0614   1
  -3  -5  29 1213.83 124.977  -2
  31   5  -5 1213.83 124.977   1
  31   5  -4 103.527 92.9977   1
  -1  -5  29 5618.52 137.871  -2
  31   5  -3 5618.52 137.871   1
  31   5  -2 240.967 93.4464   1
   1  -5  29 1520.22 157.975  -2
  31   5  -1 1520.22 157.975   1
  31   5   0 120.099 188.720   1
   3  -5  28 1121.08 201.170  -2
  31   5   0 1121.08 201.170   1
  31   5   1 840.475 131.415   1
   5  -5  28 237.033 167.826  -2
  31   5   2 237.033 167.826   1
  31   5   3 2060.79 131.474   1
   7  -5  28 100.157 130.761  -2
  31   5   4 100.157 130.761   1
  31   5   5 670.750 100.572   1
   9   5  28 167.215 127.264  -2
  31  -5   6 167.215 127.264   1
  31   5   7 77.4228 96.5300   1
  11   5  28 770.676 129.502  -2
  31  -5   8 770.676 129.502   1
  31   5   9 207.093 94.5705   1
  13  -5  28 1978.77 126.853  -2
  31   5  10 1978.77 126.853   1
  31   5  11 163.586 93.8657   1
  15  -5  28 1479.62 139.231  -2
  31   5  12 1479.62 139.231   1
  31   5  13 484.107 146.856   1
  17  -5  27 803.469 171.142  -2
  31   5  13 803.469 171.142   1
  31   5  14 280.935 87.2144   1
  19  -5  27 1071.99 108.615  -2
  31   5  15 1071.99 108.615   1
  31   5  16 143.461 96.1491   1
  31   7 -23 106.618 154.526   1
 -21  -7  30 1280.32 244.681  -2
  31   7 -22 1280.32 244.681   1
  31   7 -21 135.110 196.479   1
 -19  -7  30 479.955 280.434  -2
  31   7 -20 479.955 280.434   1
  31   7 -19 173.679 225.965   1
 -17  -7  30 1313.75 299.835  -2
  31   7 -18 1313.75 299.835   1
  31   7 -17 181.369 231.322   1
 -15  -7  30 276.715 309.547  -2
  31   7 -16 276.715 309.547   1
  31   7 -15 156.687 105.962   1
  31   7 -14 150.734 127.270   1
 -13  -7  30 109.341 309.095  -2
  31   7 -14 109.341 309.095   1
  31   7 -13 67.9836 110.407   1
  31   7 -12 45.7220 116.791   1
  31   7 -11 150.707 95.5436   1
  -9  -7  29 218.469 338.913  -2
  31   7 -11 218.469 338.913   1
  31   7 -10 96.1314 93.5625   1
  -7  -7  29 2845.82 138.415  -2
  31   7  -9 2845.82 138.415   1
  31   7  -8 189.378 100.778   1
  -5  -7  29 1625.72 141.417  -2
  31   7  -7 1625.72 141.417   1
  31   7  -6 1113.05 109.836   1
  -3  -7  29 1379.85 142.823  -2
  31   7  -5 1379.85 142.823   1
  31   7  -4 167.613 104.947   1
  -1  -7  29 2050.46 140.429  -2
  31   7  -3 2050.46 140.429   1
  31   7  -2 1347.04 106.639   1
   1  -7  29 1539.29 135.122  -2
  31   7  -1 1539.29 135.122   1
  31   7   0 830.298 185.061   1
   3  -7  28 2183.63 205.755  -2
  31   7   0 2183.63 205.755   1
  31   7   1 118.273 111.520   1
   5  -7  28 2366.58 157.587  -2
  31   7   2 2366.58 157.587   1
  31   7   3 0.47346 110.469   1
   7  -7  28-85.8576 141.069  -2
  31   7   4-85.8576 141.069   1
  31   7   5 41.8867 106.241   1
   9  -7  28 986.503 143.520  -2
  31   7   6 986.503 143.520   1
  31   7   7 1014.88 109.191   1
  11  -7  28 335.295 132.081  -2
  31   7   8 335.295 132.081   1
  31   7   9 466.115 98.8011   1
  13  -7  28 139.139 119.782  -2
  31   7  10 139.139 119.782   1
  31   7  11 123.986 85.7451   1
  15  -7  28 803.830 107.327  -2
  31   7  12 803.830 107.327   1
  31   9 -19 29.8771 153.732   1
 -17  -9  30 217.386 215.885  -2
  31   9 -18 217.386 215.885   1
  31   9 -17 26.0936 178.404   1
 -15  -9  30 304.394 238.968  -2
  31   9 -16 304.394 238.968   1
  31   9 -15 31.8889 88.7459   1
  31   9 -14-15.9666 95.2675   1
  31   9 -13 287.828 104.059   1
  31   9 -12 265.928 107.699   1
  31   9 -11 90.4000 130.832   1
  -9  -9  29 560.593 285.673  -2
  31   9 -11 560.593 285.673   1
  31   9 -10 21.6763 114.260   1
  -7  -9  29 1133.64 163.478  -2
  31   9  -9 1133.64 163.478   1
  31   9  -8 98.1120 122.959   1
  -5  -9  29 1017.89 168.082  -2
  31   9  -7 1017.89 168.082   1
  31   9  -6 313.491 126.256   1
  -3  -9  29 1138.13 174.771  -2
  31   9  -5 1138.13 174.771   1
  31   9  -4 306.613 127.626   1
  -1  -9  29 1734.10 215.836  -2
  31   9  -3 1734.10 215.836   1
  31   9  -2-31.6519 154.416   1
   1  -9  29 1947.94 208.744  -2
  31   9  -1 1947.94 208.744   1
  31   9   0 236.384 154.411   1
  31   9   1 1100.57 162.925   1
   5  -9  28 716.452 212.270  -2
  31   9   2 716.452 212.270   1
  31   9   3 426.137 152.755   1
   7  -9  28 154.883 187.185  -2
  31   9   4 154.883 187.185   1
  31   9   5 664.328 138.708   1
   9  -9  28 1243.73 180.886  -2
  31   9   6 1243.73 180.886   1
  31   9   7 122.570 121.387   1
  11  -9  28 317.829 148.629  -2
  31   9   8 317.829 148.629   1
  31  11 -10 24.5507 99.3981   1
  -7 -11  29 375.047 139.454  -2
  31  11  -9 375.047 139.454   1
  31  11  -8-27.1653 106.773   1
  -5 -11  29 1277.72 156.199  -2
  31  11  -7 1277.72 156.199   1
  31  11  -6-11.5249 112.926   1
  -3 -11  29 27.0233 149.269  -2
  31  11  -5 27.0233 149.269   1
  31  11  -4-34.7357 108.232   1
  -1 -11  29 1506.67 153.575  -2
  31  11  -3 1506.67 153.575   1
  31  11  -2-6.91737 112.075   1
  31  11  -1 17.1769 108.111   1
  31  11   0 1006.91 113.515   1
  31  11   1 59.2776 103.134   1
  32   0 -20 512.193 183.384   1
  32   0 -18 32.1770 189.500   1
  32   0 -16 57.3353 188.977   1
  32   0 -14 79.3403 199.184   1
 -10   0  30 7.39737 269.114  -2
  32   0 -12 7.39737 269.114   1
  -8   0  30 1483.43 194.964  -2
  32   0 -10 1483.43 194.964   1
  -6   0  30 3361.13 209.604  -2
  32   0  -8 3361.13 209.604   1
  -4   0  30 5042.78 306.708  -2
  32   0  -6 5042.78 306.708   1
  -2   0  30 6831.74 196.881  -2
  32   0  -4 6831.74 196.881   1
  32   0  -2 1857.42 187.175   1
   0   0  30 2410.39 278.802  -2
  32   0  -2 2410.39 278.802   1
  32   0   0 1434.23 136.870   1
  32   0   2 1099.45 134.934   1
  32   0   4 385.076 128.554   1
  32   0   6 97.0371 116.440   1
  32   0   8 2088.32 126.834   1
  32   0  10 15129.5 170.258   1
  16   0  28 4210.48 153.109  -2
  32   0  12 4210.48 153.109   1
  18   0  28 723.665 121.450  -2
  32   0  14 723.665 121.450   1
  20   0  28 2248.01 193.655  -2
  32   0  16 2248.01 193.655   1
  32   2 -25 243.143 157.781   1
  32   2 -24 32.4827 170.538   1
 -22  -2  31 476.509 252.411  -2
  32   2 -23 476.509 252.411   1
  32   2 -22 53.4819 184.486   1
 -20  -2  31 93.7514 258.861  -2
  32   2 -21 93.7514 258.861   1
  32   2 -20 100.905 205.321   1
 -18  -2  31 390.244 289.299  -2
  32   2 -19 390.244 289.299   1
  32   2 -18 26.1805 208.168   1
 -16  -2  31 57.9084 291.145  -2
  32   2 -17 57.9084 291.145   1
  32   2 -16 25.8234 234.273   1
 -14  -2  31 363.971 305.112  -2
  32   2 -15 363.971 305.112   1
  32   2 -14-113.428 239.929   1
  32   2 -13 489.845 239.722   1
 -10  -2  30 543.906 194.918  -2
  32   2 -12 543.906 194.918   1
  32   2 -11 304.041 151.104   1
  -8  -2  30 726.496 201.460  -2
  32   2 -10 726.496 201.460   1
  32   2  -9 796.589 118.491   1
  -6  -2  30 698.114 123.902  -2
  32   2  -8 698.114 123.902   1
  32   2  -7 1356.55 98.4342   1
  -4  -2  30 191.491 123.060  -2
  32   2  -6 191.491 123.060   1
  32   2  -5 8.06718 93.9734   1
  -2  -2  30 1350.67 132.069  -2
  32   2  -4 1350.67 132.069   1
  32   2  -3 701.898 103.387   1
   0  -2  30 2246.28 131.743  -2
  32   2  -2 2246.28 131.743   1
  32  -2  -1 64.1327 122.448   1
   2  -2  29 2092.76 157.955  -2
  32   2  -1 2092.76 157.955   1
  32   2   0 271.819 92.9214   1
  32  -2   1 195.001 171.805   1
   4  -2  29 3894.12 150.025  -2
  32   2   1 3894.12 150.025   1
  32   2   2 891.442 91.5007   1
   6  -2  29 707.573 118.041  -2
  32   2   3 707.573 118.041   1
  32  -2   4 301.846 84.1035   1
   8   2  29 1031.05 114.948  -2
  32  -2   5 1031.05 114.948   1
  32  -2   6 435.837 81.4317   1
  10   2  29 807.013 106.244  -2
  32  -2   7 807.013 106.244   1
  32  -2   8 241.872 77.8122   1
  12   2  29 731.592 99.5475  -2
  32  -2   9 731.592 99.5475   1
  32  -2  10 206.127 73.3237   1
  14   2  29 2823.62 99.8756  -2
  32  -2  11 2823.62 99.8756   1
  32   2  12 605.418 167.952   1
  16  -2  28 775.573 144.335  -2
  32   2  12 775.573 144.335   1
  32   2  13 6550.58 105.737   1
  18  -2  28 668.373 108.995  -2
  32   2  14 668.373 108.995   1
  32   2  15 3381.94 83.6324   1
  20  -2  28 448.581 87.7525  -2
  32   2  16 448.581 87.7525   1
  32   4 -25 4.72056 154.523   1
  32   4 -24-43.4095 171.991   1
  32   4 -23 0.34123 110.533   1
 -22  -4  31 248.520 257.020  -2
  32   4 -23 248.520 257.020   1
  32   4 -22 112.481 101.805   1
 -20  -4  31 7.72007 68.9550  -2
  32   4 -21 7.72007 68.9550   1
  32   4 -20 47.1477 113.011   1
 -18  -4  31 115.528 153.727  -2
  32   4 -19 115.528 153.727   1
  32   4 -18-21.7181 123.861   1
 -16  -4  31-56.3928 164.300  -2
  32   4 -17-56.3928 164.300   1
  32   4 -16 117.294 128.789   1
  32   4 -15-9.25776 163.175   1
 -14  -4  31 248.854 307.518  -2
  32   4 -15 248.854 307.518   1
  32   4 -14 3.22343 130.060   1
  32   4 -13 7.40630 135.205   1
  32   4 -12 89.6350 170.438   1
 -10  -4  30 296.922 340.355  -2
  32   4 -12 296.922 340.355   1
  32   4 -11-18.8783 81.1706   1
  -8  -4  30 666.349 114.334  -2
  32   4 -10 666.349 114.334   1
  32   4  -9 172.700 88.1410   1
  -6  -4  30 837.400 118.719  -2
  32   4  -8 837.400 118.719   1
  32   4  -7 77.7698 90.9069   1
  -4  -4  30 4769.29 138.523  -2
  32   4  -6 4769.29 138.523   1
  32   4  -5 54.6564 95.6797   1
  -2  -4  30 4367.99 133.301  -2
  32   4  -4 4367.99 133.301   1
  32   4  -3 308.023 94.0199   1
   0  -4  30 2125.61 123.707  -2
  32   4  -2 2125.61 123.707   1
  32   4  -1 59.3079 180.586   1
   2  -4  29 1413.16 142.923  -2
  32   4  -1 1413.16 142.923   1
  32   4   0 31.0470 86.8749   1
   4  -4  29 236.913 122.867  -2
  32   4   1 236.913 122.867   1
  32  -4   2 1.23801 79.7037   1
   6   4  29 1070.41 106.029  -2
  32  -4   3 1070.41 106.029   1
  32   4   4 372.239 76.9193   1
   8  -4  29 640.014 131.063  -2
  32   4   5 640.014 131.063   1
  32   4   6 810.123 97.4059   1
  10  -4  29 449.254 126.485  -2
  32   4   7 449.254 126.485   1
  32   4   8 1148.46 95.8543   1
  12  -4  29 606.425 122.487  -2
  32   4   9 606.425 122.487   1
  32   4  10 1307.92 95.6214   1
  14  -4  29 361.325 111.441  -2
  32   4  11 361.325 111.441   1
  32   4  12 127.469 149.755   1
  16  -4  28 537.325 132.135  -2
  32   4  12 537.325 132.135   1
  32   4  13 20.2445 77.6118   1
  18  -4  28 234.655 111.573  -2
  32   4  14 234.655 111.573   1
  32   4  15 240.290 75.8004   1
  32   6 -24 112.166 147.183   1
 -22  -6  31-9.41197 221.264  -2
  32   6 -23-9.41197 221.264   1
  32   6 -22 34.4124 182.493   1
 -20  -6  31 171.103 245.900  -2
  32   6 -21 171.103 245.900   1
  32   6 -20 87.0417 197.566   1
 -18  -6  31 334.178 283.983  -2
  32   6 -19 334.178 283.983   1
  32   6 -18-62.7605 230.091   1
 -16  -6  31 21.3941 300.604  -2
  32   6 -17 21.3941 300.604   1
  32   6 -16 40.3627 81.2980   1
  32   6 -15 50.5028 87.6978   1
 -14  -6  31 35.8638 148.229  -2
  32   6 -15 35.8638 148.229   1
  32   6 -14 3.56958 84.0160   1
  32   6 -13 151.423 70.0983   1
  32   6 -12 263.533 78.2795   1
 -10  -6  30 320.226 336.996  -2
  32   6 -12 320.226 336.996   1
  32   6 -11 379.193 75.7240   1
  -8  -6  30 1057.02 133.338  -2
  32   6 -10 1057.02 133.338   1
  32   6  -9 619.090 101.689   1
  -6  -6  30 100.227 132.933  -2
  32   6  -8 100.227 132.933   1
  32   6  -7 224.666 104.928   1
  -4  -6  30 151.963 139.980  -2
  32   6  -6 151.963 139.980   1
  32   6  -5 35.6012 105.409   1
  -2  -6  30 467.548 141.508  -2
  32   6  -4 467.548 141.508   1
  32   6  -3 1201.18 110.434   1
  32   6  -2-46.6588 174.445   1
   0  -6  30 240.212 171.079  -2
  32   6  -2 240.212 171.079   1
  32   6  -1 428.270 119.643   1
   2  -6  29 1145.76 345.266  -2
  32   6  -1 1145.76 345.266   1
  32   6   0 19.1349 116.104   1
   4  -6  29 932.669 157.719  -2
  32   6   1 932.669 157.719   1
  32   6   2 42.8193 114.406   1
   6  -6  29 930.965 152.168  -2
  32   6   3 930.965 152.168   1
  32   6   4 168.201 109.682   1
   8  -6  29 1945.86 153.381  -2
  32   6   5 1945.86 153.381   1
  32   6   6 165.879 108.984   1
  10  -6  29 589.405 138.038  -2
  32   6   7 589.405 138.038   1
  32   6   8 98.1261 102.668   1
  12  -6  29 2976.07 140.833  -2
  32   6   9 2976.07 140.833   1
  32   6  10 455.748 94.9946   1
  14  -6  29 1473.07 119.577  -2
  32   6  11 1473.07 119.577   1
  32   6  12 746.951 128.042   1
  16  -6  28 2408.35 155.967  -2
  32   6  12 2408.35 155.967   1
  32   6  13 1306.18 106.891   1
  32   8 -20 101.468 151.869   1
 -18  -8  31 1.04118 220.322  -2
  32   8 -19 1.04118 220.322   1
  32   8 -18-5.15308 183.187   1
 -16  -8  31 0.46147 245.783  -2
  32   8 -17 0.46147 245.783   1
  32   8 -16 229.527 205.582   1
  32   8 -15 230.831 208.358   1
  32   8 -14 21.1739 94.6236   1
  32   8 -13 51.2637 97.4681   1
  32   8 -12 26.5097 123.076   1
 -10  -8  30 290.033 293.669  -2
  32   8 -12 290.033 293.669   1
  32   8 -11 26.1525 113.769   1
  -8  -8  30 434.059 154.741  -2
  32   8 -10 434.059 154.741   1
  32   8  -9 114.993 116.149   1
  -6  -8  30 537.439 166.824  -2
  32   8  -8 537.439 166.824   1
  32   8  -7 676.435 128.118   1
  -4  -8  30 1143.80 176.091  -2
  32   8  -6 1143.80 176.091   1
  32   8  -5 190.473 131.344   1
  -2  -8  30 832.688 172.867  -2
  32   8  -4 832.688 172.867   1
  32   8  -3 210.145 158.417   1
   0  -8  30 312.413 204.663  -2
  32   8  -2 312.413 204.663   1
  32   8  -1 303.116 94.2426   1
  32   8   0 89.0573 92.4153   1
   4  -8  29 741.326 121.352  -2
  32   8   1 741.326 121.352   1
  32   8   2 88.0563 88.9578   1
   6  -8  29 677.541 121.445  -2
  32   8   3 677.541 121.445   1
  32   8   4 23.5061 88.2178   1
   8  -8  29 149.031 116.070  -2
  32   8   5 149.031 116.070   1
  32   8   6 40.6345 83.0148   1
  10  -8  29 119.003 109.168  -2
  32   8   7 119.003 109.168   1
  32   8   8 3029.56 141.010   1
  12  -8  29 276.234 149.790  -2
  32   8   9 276.234 149.790   1
  32  10 -13 49.2652 147.806   1
  32  10 -12 98.3139 158.582   1
  32  10 -11 82.7315 84.7929   1
  -8 -10  30 398.775 123.364  -2
  32  10 -10 398.775 123.364   1
  32  10  -9 48.3219 109.424   1
  -6 -10  30 123.381 149.843  -2
  32  10  -8 123.381 149.843   1
  32  10  -7 181.200 119.592   1
  -4 -10  30 569.136 164.196  -2
  32  10  -6 569.136 164.196   1
  32  10  -5 717.774 127.528   1
  -2 -10  30 857.171 167.748  -2
  32  10  -4 857.171 167.748   1
  32  10  -3 242.092 125.071   1
  32  10  -2 1075.42 131.861   1
  32  10  -1 50.2484 118.047   1
  32  10   0 928.845 125.594   1
   4 -10  29 350.007 156.392  -2
  32  10   1 350.007 156.392   1
  32  10   2 455.717 112.937   1
   6 -10  29 202.010 140.511  -2
  32  10   3 202.010 140.511   1
  33   1 -26 4.64047 91.3498   1
 -21  -1  32 74.6803 212.385  -2
  33   1 -22 74.6803 212.385   1
  33   1 -21-71.5586 169.832   1
 -19  -1  32 50.9775 230.532  -2
  33   1 -20 50.9775 230.532   1
  33   1 -19-50.3771 183.678   1
 -17  -1  32 176.874 243.913  -2
  33   1 -18 176.874 243.913   1
  33   1 -17-39.2184 195.171   1
  33   1 -16 101.227 204.674   1
  33   1 -15 220.802 209.532   1
  33   1 -14 174.447 212.006   1
  33   1 -13 442.622 142.034   1
  33   1 -12 386.561 146.205   1
  -9  -1  31 671.076 147.668  -2
  33   1 -11 671.076 147.668   1
  33   1 -10 1103.73 123.333   1
  -7  -1  31 200.637 86.2165  -2
  33   1  -9 200.637 86.2165   1
  33   1  -8 132.877 114.657   1
  -5  -1  31 1600.03 159.097  -2
  33   1  -7 1600.03 159.097   1
  33   1  -6 87.6043 93.4465   1
  -3  -1  31 1698.01 126.271  -2
  33   1  -5 1698.01 126.271   1
  33   1  -4 195.871 94.7266   1
  33   1  -3 268.857 171.356   1
  -1  -1  31 2130.50 154.629  -2
  33   1  -3 2130.50 154.629   1
  33   1  -2 240.173 89.4179   1
  33   1  -1 436.551 91.8100   1
  33  -1   0 409.757 176.971   1
   3  -1  30 4546.72 152.775  -2
  33   1   0 4546.72 152.775   1
  33   1   1 2112.63 97.6317   1
   5  -1  30 569.578 116.004  -2
  33   1   2 569.578 116.004   1
  33  -1   3 141.050 83.9243   1
   7   1  30 103.687 68.0265  -2
  33  -1   4 103.687 68.0265   1
  33  -1   5 92.9781 80.8876   1
   9   1  30 2063.95 112.146  -2
  33  -1   6 2063.95 112.146   1
  33  -1   7 326.852 75.7284   1
  11   1  30 341.791 97.1595  -2
  33  -1   8 341.791 97.1595   1
  33   1   9 977.495 75.0281   1
  13   1  30 699.109 91.3050  -2
  33  -1  10 699.109 91.3050   1
  33   1  11 8.05870 150.037   1
  15   1  29 140.420 99.6979  -2
  33  -1  11 140.420 99.6979   1
  33   1  12 376.979 65.1767   1
  17  -1  29 434.449 99.0953  -2
  33   1  13 434.449 99.0953   1
  33  -1  14-8.30017 68.0401   1
  19   1  29 2099.94 124.362  -2
  33  -1  15 2099.94 124.362   1
  33   3 -24 68.3227 81.6002   1
  33   3 -23 24.1575 88.3987   1
 -21  -3  32 202.752 131.061  -2
  33   3 -22 202.752 131.061   1
  33   3 -21 36.5775 107.606   1
 -19  -3  32 403.505 148.482  -2
  33   3 -20 403.505 148.482   1
  33   3 -19 39.5625 117.433   1
 -17  -3  32 535.962 156.450  -2
  33   3 -18 535.962 156.450   1
  33   3 -17 229.722 132.481   1
  33   3 -16 287.078 133.172   1
  33   3 -15 36.0098 135.948   1
  33   3 -14 76.1189 136.468   1
  33   3 -13 80.1637 139.103   1
  33   3 -12 12.5488 104.523   1
  -9  -3  31 285.218 139.239  -2
  33   3 -11 285.218 139.239   1
  33   3 -10 75.8654 109.366   1
  -7  -3  31 58.1360 64.9985  -2
  33   3  -9 58.1360 64.9985   1
  33   3  -8 27.5942 86.9885   1
  -5  -3  31 43.8328 52.9331  -2
  33   3  -7 43.8328 52.9331   1
  33   3  -6 28.4957 88.0419   1
  -3  -3  31 458.796 120.495  -2
  33   3  -5 458.796 120.495   1
  33   3  -4 131.961 91.8299   1
  33   3  -3 169.580 165.884   1
  -1  -3  31 595.850 140.237  -2
  33   3  -3 595.850 140.237   1
  33   3  -2 2061.23 109.558   1
   1  -3  30 7831.50 350.753  -2
  33   3  -2 7831.50 350.753   1
  33   3  -1 632.140 99.9316   1
   3  -3  30 5102.65 143.765  -2
  33   3   0 5102.65 143.765   1
  33  -3   1 22.9573 80.3347   1
   5   3  30 680.173 106.769  -2
  33  -3   2 680.173 106.769   1
  33  -3   3 30.0524 77.0009   1
   7   3  30 3128.96 113.607  -2
  33  -3   4 3128.96 113.607   1
  33   3   5 1117.79 78.3451   1
   9   3  30 26.3757 62.0165  -2
  33  -3   6 26.3757 62.0165   1
  33   3   7 464.212 91.5904   1
  11   3  30 18.3322 43.7253  -2
  33  -3   8 18.3322 43.7253   1
  33   3   9 2914.85 97.6914   1
  13  -3  30 290.202 110.501  -2
  33   3  10 290.202 110.501   1
  33  -3  11 685.378 104.250   1
  15  -3  29 1576.08 180.219  -2
  33   3  11 1576.08 180.219   1
  33   3  12 264.992 77.9366   1
  17  -3  29 702.381 98.0756  -2
  33   3  13 702.381 98.0756   1
  33   3  14 119.433 63.2261   1
  33   5 -23 373.154 154.434   1
 -21  -5  32-9.54888 225.583  -2
  33   5 -22-9.54888 225.583   1
  33   5 -21 3.98013 183.998   1
 -19  -5  32 475.606 252.374  -2
  33   5 -20 475.606 252.374   1
  33   5 -19 700.348 111.260   1
 -17  -5  32 122.008 136.918  -2
  33   5 -18 122.008 136.918   1
  33   5 -17 95.3327 111.067   1
  33   5 -16 38.9122 84.6429   1
  33   5 -15 53.7827 85.5761   1
  33   5 -14 13.6434 87.0645   1
  33   5 -13 6.37008 88.5468   1
  33   5 -12 38.6160 90.8360   1
  -9  -5  31 381.223 99.8527  -2
  33   5 -11 381.223 99.8527   1
  33   5 -10 21.8436 75.1474   1
  -7  -5  31 188.687 103.743  -2
  33   5  -9 188.687 103.743   1
  33   5  -8 528.530 82.3961   1
  -5  -5  31 114.165 106.414  -2
  33   5  -7 114.165 106.414   1
  33   5  -6 135.466 81.4960   1
  -3  -5  31 1946.93 112.260  -2
  33   5  -5 1946.93 112.260   1
  33   5  -4 147.253 83.2943   1
  33   5  -3 69.7793 170.223   1
  -1  -5  31 72.6016 175.430  -2
  33   5  -3 72.6016 175.430   1
  33   5  -2-8.82810 116.452   1
   1  -5  30 294.209 335.214  -2
  33   5  -2 294.209 335.214   1
  33   5  -1 995.570 120.460   1
   3  -5  30 217.863 156.540  -2
  33   5   0 217.863 156.540   1
  33   5   1 2681.62 130.107   1
   5  -5  30 525.229 151.003  -2
  33   5   2 525.229 151.003   1
  33   5   3 76.7119 110.068   1
   7  -5  30 221.096 148.114  -2
  33   5   4 221.096 148.114   1
  33   5   5 74.9399 109.160   1
   9  -5  30 662.340 141.373  -2
  33   5   6 662.340 141.373   1
  33   5   7 1389.42 111.486   1
  11  -5  30 52.7102 128.444  -2
  33   5   8 52.7102 128.444   1
  33   5   9 331.650 96.4621   1
  13  -5  30 257.849 117.851  -2
  33   5  10 257.849 117.851   1
  33   5  11-35.2598 129.526   1
  15  -5  29 12.7418 151.202  -2
  33   5  11 12.7418 151.202   1
  33   5  12 50.6209 77.2307   1
  17  -5  29 392.946 126.259  -2
  33   5  13 392.946 126.259   1
  33   7 -21 100.407 149.157   1
 -19  -7  32 354.002 213.354  -2
  33   7 -20 354.002 213.354   1
  33   7 -19 17.5309 177.424   1
 -17  -7  32 96.4263 241.280  -2
  33   7 -18 96.4263 241.280   1
  33   7 -17-13.0672 200.545   1
  33   7 -16 184.265 203.981   1
  33   7 -15 161.346 217.827   1
  33   7 -14 129.635 207.024   1
  33   7 -13 64.1768 217.719   1
  33   7 -12 197.686 105.393   1
  -9  -7  31 746.076 155.813  -2
  33   7 -11 746.076 155.813   1
  33   7 -10 528.561 116.362   1
  -7  -7  31 58.7717 110.361  -2
  33   7  -9 58.7717 110.361   1
  33   7  -8 29.7977 83.4459   1
  -5  -7  31 250.723 115.565  -2
  33   7  -7 250.723 115.565   1
  33   7  -6 15.5198 86.6830   1
  -3  -7  31 1078.56 117.770  -2
  33   7  -5 1078.56 117.770   1
  33   7  -4-20.4765 88.8023   1
  33   7  -3 184.984 97.7687   1
  33   7  -2 877.292 100.868   1
  33   7  -1-12.2996 96.1026   1
   3  -7  30 2126.51 136.368  -2
  33   7   0 2126.51 136.368   1
  33   7   1 9.05125 97.9601   1
   5  -7  30 1118.98 131.813  -2
  33   7   2 1118.98 131.813   1
  33   7   3 11.7344 92.6294   1
   7  -7  30 1779.40 131.234  -2
  33   7   4 1779.40 131.234   1
  33   7   5-8.18349 90.0786   1
   9  -7  30 20.9521 113.357  -2
  33   7   6 20.9521 113.357   1
  33   7   7 462.006 84.9231   1
  11  -7  30 258.196 102.928  -2
  33   7   8 258.196 102.928   1
  33   7   9 707.215 121.077   1
  33   9 -15 89.6613 146.601   1
  33   9 -14 27.2355 161.641   1
  33   9 -13 6.54605 166.296   1
  33   9 -12 19.6841 81.3642   1
  -9  -9  31 811.132 123.119  -2
  33   9 -11 811.132 123.119   1
  33   9 -10 66.2564 93.2737   1
  -7  -9  31 371.706 131.663  -2
  33   9  -9 371.706 131.663   1
  33   9  -8 571.167 102.687   1
  -5  -9  31 1113.90 169.397  -2
  33   9  -7 1113.90 169.397   1
  33   9  -6 411.298 131.419   1
  -3  -9  31 517.667 167.148  -2
  33   9  -5 517.667 167.148   1
  33   9  -4-9.62368 129.108   1
  33   9  -3 160.175 134.792   1
  33   9  -2-83.2695 130.284   1
  33   9  -1 137.559 128.467   1
   3  -9  30 59.7734 174.546  -2
  33   9   0 59.7734 174.546   1
  33   9   1 795.034 130.494   1
   5  -9  30 492.418 166.735  -2
  33   9   2 492.418 166.735   1
  33   9   3 377.587 113.044   1
   7  -9  30 213.614 148.891  -2
  33   9   4 213.614 148.891   1
  34   0 -14 5.43179 173.735   1
 -10   0  32 3358.41 252.648  -2
  34   0 -12 3358.41 252.648   1
  -8   0  32 364.887 235.993  -2
  34   0 -10 364.887 235.993   1
  -6   0  32 4360.04 285.040  -2
  34   0  -8 4360.04 285.040   1
  -4   0  32 4250.31 268.495  -2
  34   0  -6 4250.31 268.495   1
  -2   0  32 5821.52 268.846  -2
  34   0  -4 5821.52 268.846   1
  34   0  -2 4057.41 139.473   1
  34   0   0 229.616 123.864   1
  34   0   2 231.922 115.562   1
  34   0   4 61.1531 109.546   1
  34   0   6 685.762 109.246   1
  34   0   8 2090.30 108.108   1
  34   0  10 143.981 140.221   1
  14   0  30 421.917 153.499  -2
  34   0  10 421.917 153.499   1
  16   0  30 2210.21 115.237  -2
  34   0  12 2210.21 115.237   1
  18   0  30 5528.62 181.887  -2
  34   0  14 5528.62 181.887   1
  34   2 -24 8.67607 95.0771   1
 -22  -2  33 4.82676 136.053  -2
  34   2 -23 4.82676 136.053   1
  34   2 -22 33.1032 93.0936   1
 -20  -2  33 853.860 132.714  -2
  34   2 -21 853.860 132.714   1
  34   2 -20-18.5290 103.379   1
 -18  -2  33 168.967 140.432  -2
  34   2 -19 168.967 140.432   1
  34   2 -18 60.6386 117.948   1
  34   2 -17 58.0945 121.377   1
  34   2 -16-5.87849 121.243   1
  34   2 -15 38.9205 129.060   1
  34   2 -14 195.421 104.090   1
  34   2 -13 15.9456 105.320   1
 -10  -2  32 476.917 138.223  -2
  34   2 -12 476.917 138.223   1
  34   2 -11 45.9126 107.093   1
  -8  -2  32 448.523 139.137  -2
  34   2 -10 448.523 139.137   1
  34   2  -9 8.95493 105.120   1
  -6  -2  32 306.336 139.949  -2
  34   2  -8 306.336 139.949   1
  34   2  -7 1259.45 89.6845   1
  -4  -2  32 309.431 113.070  -2
  34   2  -6 309.431 113.070   1
  34   2  -5 1463.87 96.2512   1
  34   2  -4 565.512 154.794   1
  -2  -2  32 2711.64 147.466  -2
  34   2  -4 2711.64 147.466   1
  34   2  -3 1317.05 94.6924   1
  34   2  -2 352.129 95.0411   1
   2  -2  31 393.201 127.999  -2
  34   2  -1 393.201 127.999   1
  34   2   0 120.189 80.4168   1
   4  -2  31 510.149 105.906  -2
  34   2   1 510.149 105.906   1
  34  -2   2 10.7693 77.6556   1
   6   2  31 131.427 100.655  -2
  34  -2   3 131.427 100.655   1
  34  -2   4 716.088 75.3976   1
   8   2  31 155.296 93.5308  -2
  34  -2   5 155.296 93.5308   1
  34  -2   6 576.211 72.7679   1
  10   2  31 2155.55 94.9022  -2
  34  -2   7 2155.55 94.9022   1
  34  -2   8 265.558 65.0841   1
  12  -2  31 2480.39 111.391  -2
  34   2   9 2480.39 111.391   1
  34  -2  10 522.190 104.538   1
  14  -2  30 545.807 169.429  -2
  34   2  10 545.807 169.429   1
  34   2  11 2351.46 81.3677   1
  16  -2  30 179.771 93.3578  -2
  34   2  12 179.771 93.3578   1
  34   2  13 807.656 65.6302   1
  34  -4 -22 13.4335 80.8970   1
 -20  -4  33-30.2637 85.8445  -2
  34   4 -21-30.2637 85.8445   1
  34   4 -20 70.8962 95.4315   1
 -18  -4  33 139.033 98.1261  -2
  34   4 -19 139.033 98.1261   1
  34   4 -18 5.03561 81.2887   1
  34   4 -17-3.70368 82.7922   1
  34   4 -16-9.56941 84.9111   1
  34   4 -15-7.11494 87.1131   1
  34   4 -14 52.2770 89.7094   1
  34   4 -13 29.2911 93.3481   1
 -10  -4  32 460.252 127.185  -2
  34   4 -12 460.252 127.185   1
  34   4 -11 57.7395 96.5965   1
  -8  -4  32 211.657 125.227  -2
  34   4 -10 211.657 125.227   1
  34   4  -9 77.4807 77.2797   1
  -6  -4  32 2962.54 116.063  -2
  34   4  -8 2962.54 116.063   1
  34   4  -7 85.3362 82.9124   1
  -4  -4  32 1188.58 110.543  -2
  34   4  -6 1188.58 110.543   1
  34   4  -5 81.4507 82.5007   1
  34   4  -4 233.098 157.475   1
  -2  -4  32 1225.19 124.702  -2
  34   4  -4 1225.19 124.702   1
  34   4  -3 31.7746 80.4077   1
  34   4  -2 1464.37 89.8518   1
  34   4  -1 106.964 164.401   1
   2  -4  31 88.4950 130.639  -2
  34   4  -1 88.4950 130.639   1
  34  -4   0 573.505 82.7808   1
   4  -4  31 976.180 152.293  -2
  34   4   1 976.180 152.293   1
  34   4   2 290.662 109.497   1
   6  -4  31 496.574 147.819  -2
  34   4   3 496.574 147.819   1
  34   4   4 64.4780 107.939   1
   8  -4  31 186.838 135.867  -2
  34   4   5 186.838 135.867   1
  34   4   6 34.4353 103.833   1
  10  -4  31 270.225 128.973  -2
  34   4   7 270.225 128.973   1
  34   4   8 772.609 81.7159   1
  34  -4   9 54.1659 128.062   1
  12  -4  31 66.4176 119.506  -2
  34   4   9 66.4176 119.506   1
  34   4  10 1163.09 142.630   1
  14  -4  30 2094.23 168.250  -2
  34   4  10 2094.23 168.250   1
  34   4  11 35.6922 82.3984   1
  16  -4  30 1283.53 103.991  -2
  34   4  12 1283.53 103.991   1
  34   6 -20-27.1056 163.143   1
 -18  -6  33 133.941 221.474  -2
  34   6 -19 133.941 221.474   1
  34   6 -18-7.36772 184.943   1
  34   6 -17 150.672 194.940   1
  34   6 -16-40.0468 191.793   1
  34   6 -15 125.240 211.217   1
  34   6 -14 93.0052 100.973   1
  34   6 -13-7.27076 101.910   1
 -10  -6  32 99.7629 139.514  -2
  34   6 -12 99.7629 139.514   1
  34   6 -11 27.4948 79.1271   1
  -8  -6  32 230.314 109.941  -2
  34   6 -10 230.314 109.941   1
  34   6  -9 96.6309 85.9164   1
  -6  -6  32 1259.78 121.003  -2
  34   6  -8 1259.78 121.003   1
  34   6  -7 190.217 91.8635   1
  -4  -6  32 1125.26 120.083  -2
  34   6  -6 1125.26 120.083   1
  34   6  -5 1618.41 96.5581   1
  34   6  -4 40.3746 100.286   1
  -2  -6  32 642.070 291.961  -2
  34   6  -4 642.070 291.961   1
  34   6  -3 927.303 104.371   1
  34   6  -2 122.533 100.554   1
  34   6  -1 151.594 150.994   1
   2  -6  31 326.372 174.231  -2
  34   6  -1 326.372 174.231   1
  34   6   0 19.3400 97.9000   1
   4  -6  31 32.5269 74.2140  -2
  34   6   1 32.5269 74.2140   1
  34   6   2 158.461 96.7907   1
   6  -6  31 293.111 125.997  -2
  34   6   3 293.111 125.997   1
  34   6   4 55.7777 91.6432   1
   8  -6  31 42.8851 61.6616  -2
  34   6   5 42.8851 61.6616   1
  34   6   6 123.690 88.1464   1
  10  -6  31 2909.65 121.388  -2
  34   6   7 2909.65 121.388   1
  34   6   8 138.578 80.5953   1
  12  -6  31 3367.69 161.848  -2
  34   6   9 3367.69 161.848   1
  34   8 -16 46.7885 148.180   1
  34   8 -15 41.4025 156.949   1
  34   8 -14 3.41005 168.107   1
  34   8 -13 105.430 165.463   1
 -10  -8  32 1229.60 251.337  -2
  34   8 -12 1229.60 251.337   1
  34   8 -11 139.060 90.3471   1
  -8  -8  32 19.6232 59.1850  -2
  34   8 -10 19.6232 59.1850   1
  34   8  -9 213.918 97.6321   1
  -6  -8  32 1579.29 142.248  -2
  34   8  -8 1579.29 142.248   1
  34   8  -7 25.5745 105.596   1
  -4  -8  32 438.421 158.198  -2
  34   8  -6 438.421 158.198   1
  34   8  -5 45.0649 130.128   1
  34   8  -4 65.1844 132.067   1
  34   8  -3 225.396 132.317   1
  34   8  -2-13.8492 131.263   1
  34   8  -1 1271.26 140.823   1
  34   8   0 137.564 129.671   1
   4  -8  31 1726.53 182.935  -2
  34   8   1 1726.53 182.935   1
  34   8   2 43.9362 121.672   1
   6  -8  31 171.394 160.660  -2
  34   8   3 171.394 160.660   1
  34   8   4 108.332 111.148   1
   8  -8  31 593.809 145.046  -2
  34   8   5 593.809 145.046   1
  35   1 -23 12.3378 68.5454   1
 -21  -1  34 33.8997 56.8035  -2
  35   1 -22 33.8997 56.8035   1
  35   1 -21-6.44409 81.3140   1
 -19  -1  34-24.6757 110.859  -2
  35   1 -20-24.6757 110.859   1
  35   1 -19 21.0090 93.8015   1
  35   1 -18-0.33235 99.0190   1
  35   1 -17 57.6021 106.400   1
  35   1 -16 47.8040 105.530   1
  35   1 -15 40.4801 111.629   1
  35   1 -14 31.9681 115.507   1
 -11  -1  33 394.114 156.449  -2
  35   1 -13 394.114 156.449   1
  35   1 -12 244.912 101.430   1
  -9  -1  33 287.473 132.377  -2
  35   1 -11 287.473 132.377   1
  35   1 -10 65.4354 103.134   1
  -7  -1  33 112.851 159.987  -2
  35   1  -9 112.851 159.987   1
  35   1  -8 187.346 107.402   1
  -5  -1  33 269.354 159.094  -2
  35   1  -7 269.354 159.094   1
  35   1  -6 2624.26 139.464   1
  -3  -1  33 1397.87 163.761  -2
  35   1  -5 1397.87 163.761   1
  35   1  -4 432.208 98.1782   1
  35   1  -3 121.994 95.0949   1
  35   1  -2 1432.45 158.283   1
   1  -1  32 2358.97 165.641  -2
  35   1  -2 2358.97 165.641   1
  35   1  -1 204.025 77.4430   1
   3   1  32 2048.34 110.025  -2
  35  -1   0 2048.34 110.025   1
  35  -1   1 209.827 77.1651   1
   5   1  32 814.867 102.696  -2
  35  -1   2 814.867 102.696   1
  35  -1   3 37.2128 71.9871   1
   7   1  32 269.177 92.1698  -2
  35  -1   4 269.177 92.1698   1
  35  -1   5 710.809 71.3403   1
   9   1  32 950.692 89.0450  -2
  35  -1   6 950.692 89.0450   1
  35  -1   7 45.7345 63.4732   1
  35  -1   8 2357.47 145.117   1
  11   1  32 2288.71 94.7845  -2
  35  -1   8 2288.71 94.7845   1
  35  -1   9 3.24773 91.3070   1
  13   1  31 320.162 100.443  -2
  35  -1   9 320.162 100.443   1
  35   1  10 782.845 70.9670   1
  15   1  31 178.296 85.0772  -2
  35  -1  11 178.296 85.0772   1
  35  -1  12 71.0195 77.9287   1
 -21   3  34 152.018 120.777  -2
  35  -3 -22 152.018 120.777   1
  35   3 -21 37.2288 64.4296   1
 -19  -3  34 142.313 87.0955  -2
  35   3 -20 142.313 87.0955   1
  35   3 -19 92.3588 75.5830   1
  35   3 -18 21.9878 79.0517   1
  35   3 -17 29.1088 81.7258   1
  35   3 -16 78.8880 84.1398   1
  35   3 -15 38.1955 87.0352   1
  35   3 -14-5.91430 89.6591   1
 -11  -3  33 649.822 122.634  -2
  35   3 -13 649.822 122.634   1
  35   3 -12 53.7408 92.4165   1
  -9  -3  33 191.487 123.803  -2
  35   3 -11 191.487 123.803   1
  35   3 -10 18.4375 92.2889   1
  -7  -3  33 213.182 124.759  -2
  35   3  -9 213.182 124.759   1
  35   3  -8 55.2400 96.7056   1
  -5  -3  33 131.277 123.173  -2
  35   3  -7 131.277 123.173   1
  35   3  -6 54.2290 79.1324   1
  35   3  -5 78.6295 118.960   1
  -3  -3  33 1011.41 141.936  -2
  35   3  -5 1011.41 141.936   1
  35   3  -4 235.974 79.4247   1
  35   3  -3 30.5858 87.3158   1
  35   3  -2 703.481 156.014   1
   1  -3  32 3432.77 153.003  -2
  35   3  -2 3432.77 153.003   1
  35   3  -1 71.1619 85.1545   1
   3   3  32 438.286 108.414  -2
  35  -3   0 438.286 108.414   1
  35  -3   1 92.3297 79.7860   1
   5   3  32 2898.68 113.118  -2
  35  -3   2 2898.68 113.118   1
  35  -3   3 403.072 74.8799   1
   7  -3  32 1811.68 143.046  -2
  35   3   4 1811.68 143.046   1
  35   3   5 475.458 100.377   1
   9  -3  32 370.328 126.175  -2
  35   3   6 370.328 126.175   1
  35  -3   7 721.211 77.8667   1
  35  -3   8 508.060 123.060   1
  11  -3  32 691.013 116.667  -2
  35   3   8 691.013 116.667   1
  35  -3   9 96.2838 87.3007   1
  13  -3  31 305.845 152.038  -2
  35   3   9 305.845 152.038   1
  35   3  10 241.191 80.1927   1
  15  -3  31 111.530 96.2933  -2
  35   3  11 111.530 96.2933   1
  35   5 -20 18.1510 144.904   1
  35   5 -19 236.813 164.928   1
  35   5 -18 6.78145 174.516   1
  35   5 -17-14.8014 96.2380   1
  35   5 -16 31.8351 95.0585   1
  35   5 -15 5.62380 71.2852   1
  35   5 -14-14.4536 73.5058   1
 -11  -5  33 823.831 141.749  -2
  35   5 -13 823.831 141.749   1
  35   5 -12 78.8566 107.286   1
  -9  -5  33 361.805 144.368  -2
  35   5 -11 361.805 144.368   1
  35   5 -10 51.2232 114.818   1
  -7  -5  33 1189.77 155.473  -2
  35   5  -9 1189.77 155.473   1
  35   5  -8 58.3183 84.6695   1
  -5  -5  33 518.069 112.421  -2
  35   5  -7 518.069 112.421   1
  35   5  -6 180.652 89.9667   1
  35   5  -5 120.122 97.9286   1
  -3  -5  33 675.589 283.400  -2
  35   5  -5 675.589 283.400   1
  35   5  -4 593.756 103.973   1
  35   5  -3 356.381 101.343   1
  35   5  -2 205.850 148.396   1
   1  -5  32 292.157 181.316  -2
  35   5  -2 292.157 181.316   1
  35   5  -1 1638.65 107.209   1
   3  -5  32 438.636 131.996  -2
  35   5   0 438.636 131.996   1
  35   5   1 42.5118 96.1204   1
   5  -5  32 357.044 126.669  -2
  35   5   2 357.044 126.669   1
  35   5   3 413.220 93.6062   1
   7  -5  32 411.169 122.858  -2
  35   5   4 411.169 122.858   1
  35   5   5 1805.83 96.1230   1
   9  -5  32 1557.10 118.596  -2
  35   5   6 1557.10 118.596   1
  35   5   7 32.7353 81.4868   1
  11  -5  32 1189.15 102.876  -2
  35   5   8 1189.15 102.876   1
  35   5   9 80.3009 108.814   1
  13  -5  31 155.164 126.567  -2
  35   5   9 155.164 126.567   1
  35   7 -16 14.8038 159.262   1
  35   7 -15 80.2980 164.551   1
  35   7 -14 35.7122 160.940   1
 -11  -7  33 314.427 233.775  -2
  35   7 -13 314.427 233.775   1
  35   7 -12 28.1456 182.069   1
  -9  -7  33-30.2295 246.600  -2
  35   7 -11-30.2295 246.600   1
  35   7 -10-3.11337 189.338   1
  -7  -7  33 232.644 124.319  -2
  35   7  -9 232.644 124.319   1
  35   7  -8 10.3756 92.6874   1
  -5  -7  33 676.324 159.571  -2
  35   7  -7 676.324 159.571   1
  35   7  -6 22.2248 77.2699   1
  35   7  -5 318.933 77.9653   1
  35   7  -4 194.624 78.1646   1
  35   7  -3-34.9611 76.1657   1
  35   7  -2 69.8527 78.7160   1
  35   7  -1 200.641 78.5692   1
   3  -7  32 824.107 105.351  -2
  35   7   0 824.107 105.351   1
  35   7   1 60.5107 75.9819   1
   5  -7  32 1805.52 107.485  -2
  35   7   2 1805.52 107.485   1
  35   7   3 45.4648 117.609   1
   7  -7  32 64.8018 152.017  -2
  35   7   4 64.8018 152.017   1
  35   7   5 66.6025 107.071   1
  36   0 -22 59.9951 97.1621   1
  36   0 -20 86.7198 118.450   1
  36   0 -18 12.1742 131.914   1
  36   0 -16 31.6181 137.317   1
 -12   0  34 1323.75 208.070  -2
  36   0 -14 1323.75 208.070   1
 -10   0  34 569.951 217.688  -2
  36   0 -12 569.951 217.688   1
  -8   0  34 50.2893 204.585  -2
  36   0 -10 50.2893 204.585   1
  -6   0  34 263.070 212.632  -2
  36   0  -8 263.070 212.632   1
  36   0  -6 367.324 168.479   1
  36   0  -4 152.931 166.186   1
  36   0  -2 84.2217 160.269   1
  36   0   0 49.5070 96.7095   1
  36   0   2 360.651 95.5776   1
  36   0   4 166.330 90.1215   1
  36   0   6 356.254 85.8656   1
  36   0   8 206.931 123.020   1
  12   0  32 830.153 134.481  -2
  36   0   8 830.153 134.481   1
  14   0  32 1951.01 156.801  -2
  36   0  10 1951.01 156.801   1
  36   2 -21 23.5516 68.1888   1
  36   2 -20-1.17008 72.6207   1
  36   2 -19 10.7187 80.2723   1
  36   2 -18 12.9107 83.9530   1
  36   2 -17 8.24473 90.7941   1
  36   2 -16 3.35917 92.7869   1
  36   2 -15 1.46727 95.3712   1
 -12  -2  34 276.009 115.085  -2
  36   2 -14 276.009 115.085   1
  36   2 -13 18.0365 88.8699   1
 -10  -2  34 53.5991 68.5323  -2
  36   2 -12 53.5991 68.5323   1
  36   2 -11 100.573 91.1388   1
  -8  -2  34 421.473 119.632  -2
  36   2 -10 421.473 119.632   1
  36   2  -9 131.693 94.9784   1
  -6  -2  34 1146.66 122.608  -2
  36   2  -8 1146.66 122.608   1
  36   2  -7 17.1596 94.7277   1
  36   2  -6 17.6204 109.839   1
  36   2  -5 38.9249 108.949   1
  36   2  -4 48.4395 82.6868   1
  36   2  -3 853.456 143.168   1
   0  -2  33 3475.87 151.399  -2
  36   2  -3 3475.87 151.399   1
  36   2  -2 40.8068 81.5683   1
   2   2  33 1029.47 111.603  -2
  36  -2  -1 1029.47 111.603   1
  36  -2   0 69.9869 80.7575   1
   4   2  33 298.550 102.733  -2
  36  -2   1 298.550 102.733   1
  36  -2   2 285.136 74.2232   1
   6   2  33 286.109 95.3926  -2
  36  -2   3 286.109 95.3926   1
  36  -2   4 1763.89 74.9460   1
   8  -2  33 375.758 118.630  -2
  36   2   5 375.758 118.630   1
  36   2   6 115.697 69.7797   1
  36   2   7 124.638 85.4140   1
  10  -2  33 1014.55 144.700  -2
  36   2   7 1014.55 144.700   1
  36  -2   8 63.2255 81.6792   1
  12  -2  32 148.042 139.633  -2
  36   2   8 148.042 139.633   1
  36   2   9 26.6923 73.7802   1
  14  -2  32 43.2685 58.4375  -2
  36   2  10 43.2685 58.4375   1
  36   4 -18 12.9335 60.2376   1
  36   4 -17 1.71794 64.7549   1
  36   4 -16 29.4087 68.3108   1
  36   4 -15-3.99104 71.3759   1
 -12  -4  34 76.1596 79.9868  -2
  36   4 -14 76.1596 79.9868   1
  36   4 -13 76.7268 77.8162   1
 -10  -4  34 108.001 73.9430  -2
  36   4 -12 108.001 73.9430   1
  36   4 -11 1.04785 77.1974   1
  -8  -4  34 100.448 101.981  -2
  36   4 -10 100.448 101.981   1
  36   4  -9 5.50814 80.4320   1
  -6  -4  34 75.6333 101.772  -2
  36   4  -8 75.6333 101.772   1
  36   4  -7 34.9927 81.4717   1
  36  -4  -6 987.601 71.5804   1
  36   4  -5 105.728 72.1773   1
  36   4  -4 2660.10 107.524   1
  36   4  -3 58.9356 134.436   1
   0  -4  33 1023.93 190.735  -2
  36   4  -3 1023.93 190.735   1
  36   4  -2 1667.09 103.728   1
   2  -4  33 846.982 129.235  -2
  36   4  -1 846.982 129.235   1
  36   4   0-5.62241 94.2586   1
   4  -4  33 435.546 123.871  -2
  36   4   1 435.546 123.871   1
  36   4   2 915.110 96.5982   1
   6  -4  33 39.2655 55.0136  -2
  36   4   3 39.2655 55.0136   1
  36   4   4 1022.11 91.5090   1
   8  -4  33 693.042 112.773  -2
  36   4   5 693.042 112.773   1
  36   4   6 983.660 85.3974   1
  36   4   7 828.047 122.949   1
  10  -4  33 770.952 131.479  -2
  36   4   7 770.952 131.479   1
  36   4   8 747.618 114.029   1
  12  -4  32 2049.12 134.756  -2
  36   4   8 2049.12 134.756   1
  36   6 -16 157.562 142.546   1
  36   6 -15-42.6003 156.702   1
 -12  -6  34 72.0211 213.296  -2
  36   6 -14 72.0211 213.296   1
  36   6 -13 4.48665 168.795   1
 -10  -6  34 318.678 226.368  -2
  36   6 -12 318.678 226.368   1
  36   6 -11-8.92221 176.481   1
  -8  -6  34 544.971 110.473  -2
  36   6 -10 544.971 110.473   1
  36   6  -9 231.691 88.6930   1
  -6  -6  34 369.638 114.941  -2
  36   6  -8 369.638 114.941   1
  36   6  -7 93.1505 75.3033   1
  36   6  -6 38.9860 77.9216   1
  36   6  -5 59.0209 78.1829   1
  36   6  -4 215.128 79.5910   1
  36   6  -3 67.7776 79.8238   1
  36   6  -2 338.133 79.7335   1
   2  -6  33 448.821 104.900  -2
  36   6  -1 448.821 104.900   1
  36   6   0-26.8456 77.0525   1
   4  -6  33 246.419 101.042  -2
  36   6   1 246.419 101.042   1
  36   6   2 644.550 76.7485   1
   6  -6  33 260.811 94.9151  -2
  36   6   3 260.811 94.9151   1
  36   6   4 17.4543 111.119   1
  36   6   5 56.3354 101.544   1
  37   1 -20 1.30677 64.8035   1
  37   1 -19 14.0419 71.6199   1
  37   1 -18 15.1530 78.6521   1
  37   1 -17 4.20359 81.7479   1
  37   1 -16 13.6042 86.6738   1
 -13  -1  35 333.365 121.416  -2
  37   1 -15 333.365 121.416   1
  37   1 -14 15.9563 94.5982   1
 -11  -1  35 175.618 130.006  -2
  37   1 -13 175.618 130.006   1
  37   1 -12 132.726 102.016   1
  -9  -1  35 147.060 130.453  -2
  37   1 -11 147.060 130.453   1
  37   1 -10 27.5807 100.988   1
  -7  -1  35 76.5346 129.475  -2
  37   1  -9 76.5346 129.475   1
  37   1  -8 180.983 108.170   1
  37   1  -7 1690.97 110.487   1
  37   1  -6 182.451 106.075   1
  37   1  -5 393.045 107.434   1
  -1  -1  34 455.868 134.272  -2
  37   1  -4 455.868 134.272   1
  37   1  -3 369.646 97.2106   1
   1  -1  34 704.111 126.132  -2
  37   1  -2 704.111 126.132   1
  37  -1  -1 350.613 92.8120   1
   3   1  34 1324.22 102.179  -2
  37  -1   0 1324.22 102.179   1
  37  -1   1 127.714 69.9269   1
   5   1  34 339.902 89.6702  -2
  37  -1   2 339.902 89.6702   1
  37  -1   3 570.220 68.4631   1
   7   1  34 336.926 81.4894  -2
  37  -1   4 336.926 81.4894   1
  37  -1   5 212.127 51.9475   1
  37   1   6 1377.68 80.6172   1
  37   1   7 295.262 109.085   1
  11  -1  33 578.483 126.447  -2
  37   1   7 578.483 126.447   1
  37   3 -18 4.77578 64.9476   1
  37   3 -17 1.74189 69.1534   1
  37   3 -16 10.0951 74.1399   1
 -13  -3  35 358.992 104.663  -2
  37   3 -15 358.992 104.663   1
  37   3 -14 2.96606 70.4068   1
 -11  -3  35 39.3590 53.8931  -2
  37   3 -13 39.3590 53.8931   1
  37   3 -12 20.0612 74.9165   1
  -9  -3  35 66.1079 98.6506  -2
  37   3 -11 66.1079 98.6506   1
  37   3 -10 15.5602 77.2732   1
  -7  -3  35 430.368 114.001  -2
  37   3  -9 430.368 114.001   1
  37   3  -8 11.1119 89.2445   1
  37   3  -7 13.8658 87.7326   1
  37   3  -6 9.04590 87.9666   1
  37   3  -5 237.264 85.9162   1
  -1  -3  34 14.4534 112.886  -2
  37   3  -4 14.4534 112.886   1
  37  -3  -3 87.1535 66.5655   1
   1   3  34 134.410 88.4330  -2
  37  -3  -2 134.410 88.4330   1
  37   3  -1 210.116 90.2021   1
   3  -3  34 1104.49 125.147  -2
  37   3   0 1104.49 125.147   1
  37   3   1-53.5868 88.3609   1
   5  -3  34 1645.86 118.073  -2
  37   3   2 1645.86 118.073   1
  37   3   3 235.020 83.3467   1
   7  -3  34 592.365 101.105  -2
  37   3   4 592.365 101.105   1
  37   3   5 49.5630 74.5104   1
  37   3   6 1362.08 76.7172   1
  11  -3  33 634.022 121.739  -2
  37   3   7 634.022 121.739   1
  37   5 -14 33.7988 144.788   1
 -11  -5  35 296.411 204.271  -2
  37   5 -13 296.411 204.271   1
  37   5 -12 63.9649 80.7092   1
  -9  -5  35 595.851 110.145  -2
  37   5 -11 595.851 110.145   1
  37   5 -10 38.5019 85.7883   1
  -7  -5  35 54.9585 129.470  -2
  37   5  -9 54.9585 129.470   1
  37   5  -8 38.4862 104.012   1
  37   5  -7 53.6784 104.543   1
  37   5  -6-50.5602 106.953   1
  37   5  -5 42.4734 74.9341   1
  37   5  -4 136.138 75.2931   1
  37   5  -3 20.1829 77.0537   1
   1  -5  34 359.481 103.601  -2
  37   5  -2 359.481 103.601   1
  37   5  -1 71.6657 75.4596   1
   3  -5  34 66.5727 45.4233  -2
  37   5   0 66.5727 45.4233   1
  37   5   1 188.321 72.3267   1
   5  -5  34 571.867 95.9641  -2
  37   5   2 571.867 95.9641   1
  37   5   3 290.442 71.4517   1
  38   0 -18 1.68756 94.5470   1
 -14   0  36 138.516 144.299  -2
  38   0 -16 138.516 144.299   1
 -12   0  36 756.960 160.276  -2
  38   0 -14 756.960 160.276   1
 -10   0  36 49.2547 160.226  -2
  38   0 -12 49.2547 160.226   1
  -8   0  36 467.922 167.606  -2
  38   0 -10 467.922 167.606   1
  38   0  -8 4.79180 127.724   1
  38   0  -6 672.665 140.652   1
  38   0  -4 258.034 122.449   1
  38   0  -2 520.268 119.089   1
  38   0   0 26.4548 110.128   1
  38   0   2 1.71116 98.0400   1
  38   0   4 470.597 89.9875   1
  38   2 -17 15.4527 94.7832   1
 -14  -2  36 96.2265 92.3980  -2
  38   2 -16 96.2265 92.3980   1
  38   2 -15 6.57217 72.3640   1
 -12  -2  36 93.4508 98.5757  -2
  38   2 -14 93.4508 98.5757   1
  38   2 -13 1.37062 77.6344   1
 -10  -2  36 120.848 104.588  -2
  38   2 -12 120.848 104.588   1
  38   2 -11 5.26764 81.4049   1
  -8  -2  36 290.183 105.963  -2
  38   2 -10 290.183 105.963   1
  38   2  -9 6.42700 83.1188   1
  38   2  -8-0.28778 85.3702   1
  38   2  -7-15.7442 83.8374   1
  38   2  -6 7.50478 85.3725   1
  38   2  -5 739.759 85.6386   1
  38  -2  -4 122.906 81.0656   1
   0   2  35 1454.40 110.229  -2
  38  -2  -3 1454.40 110.229   1
  38  -2  -2 92.0998 76.6124   1
   2   2  35 196.300 95.6121  -2
  38  -2  -1 196.300 95.6121   1
  38  -2   0 38.0849 68.1178   1
   4  -2  35 1203.08 104.726  -2
  38   2   1 1203.08 104.726   1
  38   2   2 1969.54 84.0446   1
   6  -2  35 854.873 126.920  -2
  38   2   3 854.873 126.920   1
  38   2   4 49.8992 90.4783   1
  38   2   5 381.713 86.9744   1
  38   4 -13 51.2597 91.4543   1
 -10  -4  36 44.7149 121.030  -2
  38   4 -12 44.7149 121.030   1
  38   4 -11 34.8666 97.0978   1
  -8  -4  36 171.367 125.857  -2
  38   4 -10 171.367 125.857   1
  38   4  -9 130.139 103.215   1
  38   4  -8 145.772 105.047   1
  38   4  -7 109.041 106.581   1
  38   4  -6 326.850 104.320   1
  38   4  -5 50.2124 106.369   1
  38   4  -4 192.833 105.302   1
   0  -4  35 473.461 136.109  -2
  38   4  -3 473.461 136.109   1
  38   4  -2 239.051 101.759   1
   2  -4  35 161.540 127.725  -2
  38   4  -1 161.540 127.725   1
  38   4   0 882.894 101.605   1
   4  -4  35 196.570 119.705  -2
  38   4   1 196.570 119.705   1
  38   4   2 867.108 95.0016   1
 -13  -1  37 76.1889 121.231  -2
  39   1 -15 76.1889 121.231   1
  39   1 -14 31.5486 67.1569   1
 -11  -1  37 215.615 89.4196  -2
  39   1 -13 215.615 89.4196   1
  39   1 -12 25.5574 73.1448   1
  -9  -1  37 25.2565 93.2203  -2
  39   1 -11 25.2565 93.2203   1
  39   1 -10 36.0926 75.8013   1
  39   1  -9 239.307 77.0203   1
  39   1  -8 44.7385 75.1742   1
  39   1  -7 44.7011 74.3059   1
  39   1  -6 33.7980 74.1317   1
  39  -1  -5 115.227 74.3683   1
  -1   1  36 63.2283 93.5329  -2
  39  -1  -4 63.2283 93.5329   1
  39  -1  -3-8.02137 67.4070   1
   1   1  36 73.0204 86.8096  -2
  39  -1  -2 73.0204 86.8096   1
  39  -1  -1 19.0884 63.2673   1
   3  -1  36 139.553 117.713  -2
  39   1   0 139.553 117.713   1
  39   1   1 199.896 90.5406   1
  39   3 -12 21.1444 89.2831   1
  39   3 -11 85.6508 89.1048   1
  39   3 -10 37.0985 94.0064   1
  39   3  -9 34.6961 95.0840   1
  39   3  -8 45.7506 93.9844   1
  39   3  -7 79.8150 99.5765   1
  39   3  -6 431.334 99.8965   1
  39   3  -5 6.90817 94.1620   1
  -1  -3  36 100.769 126.021  -2
  39   3  -4 100.769 126.021   1
  39   3  -3 11.5912 90.6725   1
   1  -3  36 16.5722 116.592  -2
  39   3  -2 16.5722 116.592   1
  39   3  -1 167.287 89.3256   1
  40   0  -8 508.955 88.6293   1
  40   0  -6 248.800 83.6746   1
  40   2  -7 40.7743 83.4260   1
  40   2  -6 19.1755 82.0927   1
   0   0   8 39499.9 346.265   2
   0   0  10 567.159 169.460   2
   0   0  12 7254.42 236.996   2
   0   0  14 985.033 198.759   2
   0   0  16 4978.27 240.846   2
   0   0  18 9199.79 299.646   2
   0   0  30 140.484 185.486   2
   0   0  32 922.211 126.704   2
   0   0  34 4.19178 144.076   2
   0   0  36 123.672 100.363   2
   0   2   1 18981.4 109.131   2
   0   2   2 4253.41 71.9479   2
   0   2  -3 147355. 205.687   2
   0   2   4 38653.3 95.7122   2
   0   2   5 3667.24 50.4808   2
   0   2   6 43734.0 116.490   2
   0  -2  -7 8976.64 70.5166   2
   0   2   8 14242.3 86.3334   2
   0  -2  10 694.096 66.6923   2
   0   2  12 1304.10 90.3607   2
   0   2  14 1577.58 95.5258   2
   0  -2  16 1851.99 157.025   2
   0   2 -18 206.840 130.919   2
   0   2 -19 14186.4 220.019   2
   0   2 -21 1726.49 88.1771   2
   0   2 -23 2036.58 75.4842   2
   0   2 -25 6580.60 95.7620   2
   0  -2  27 265.206 92.3332   2
   0  -2  29 31.6687 103.789   2
   0  -2  31 635.028 94.1570   2
   0  -2  32 315.283 99.4795   2
   0  -2  33 2486.48 168.614   2
   0  -2  34 33.2811 77.9644   2
   0  -2  36-11.9432 103.085   2
   0  -4  -1 31245.0 186.172   2
   0   4   3 40969.1 222.655   2
   0  -4   4 13288.2 119.503   2
   0   4   5 1509.43 78.5257   2
   0   4   6 14126.3 153.572   2
   0   4   7 13041.1 152.327   2
   0   4  -8 7907.83 116.921   2
   0   4 -10 5579.08 117.447   2
   0  -4  12 1418.40 92.0368   2
   0   4 -14 70248.2 272.350   2
   0   4 -16 6765.79 205.508   2
   0   4 -18 3567.71 184.855   2
   0  -4  19 72.5986 94.4195   2
   0  -4  21 856.826 91.7618   2
   0  -4  23 429.613 86.3936   2
   0  -4  25 360.990 88.3779   2
   0  -4  27 1648.73 107.168   2
   0  -4  29 1693.30 104.697   2
   0  -4  31 290.441 88.0654   2
   0  -4  32 116.761 85.0725   2
   0  -4  33 441.320 154.372   2
   0  -4  34 104.381 87.2639   2
   0  -4  35 22.1601 110.427   2
   0  -4  36 161.415 84.3321   2
   0  -6  -1 10326.1 161.159   2
   0  -6  -3 9821.03 154.664   2
   0  -6   4 424.190 106.861   2
   0  -6  -5 1289.21 86.0312   2
   0  -6  -6 3545.25 120.023   2
   0  -6   7 3056.50 197.391   2
   0  -6   8 1144.24 174.493   2
   0  -6  10 6070.19 224.328   2
   0  -6  12 822.469 186.133   2
   0  -6  14-4.17977 131.758   2
   0  -6  16 4106.31 157.355   2
   0   6 -18 103.422 184.995   2
   0  -6  19 2967.16 124.185   2
   0  -6  21 1469.01 123.961   2
   0  -6  23 29.9539 104.774   2
   0  -6  25 1553.52 128.113   2
   0  -6  27 7.70442 117.709   2
   0  -6  29 928.089 113.751   2
   0  -6  30 63.2507 171.715   2
   0  -6  31-0.95978 105.973   2
   0  -6  32 94.2924 95.6035   2
   0  -6  33 318.706 84.7185   2
   0  -6  34 147.837 70.2399   2
   0  -8  -1 734.333 117.423   2
   0  -8  -3 37990.3 258.401   2
   0  -8  -5 450.627 123.775   2
   0  -8  -8 8552.30 176.887   2
   0  -8  10 91.6581 181.258   2
   0  -8  12 162.249 207.307   2
   0  -8  14 126.837 146.755   2
   0  -8  16 951.418 132.528   2
   0  -8  18 66.9731 162.149   2
   0  -8  19 1345.50 179.271   2
   0  -8  21 179.813 274.713   2
   0  -8  23 128.456 113.870   2
   0  -8  25 807.548 116.128   2
   0  -8  27 308.073 105.080   2
   0  -8  29-4.57566 97.8123   2
   0  -8  31 129.996 144.906   2
   0  -8  32 48.0560 127.088   2
   0  -8  33 567.032 109.200   2
   0 -10  -1 2207.83 127.848   2
   0 -10  -3 276.334 131.221   2
   0 -10   5 5842.76 281.061   2
   0 -10   8 3436.31 262.667   2
   0 -10  10 1182.92 223.549   2
   0 -10  12 6906.29 336.004   2
   0 -10  14 2732.40 186.591   2
   0 -10  16 507.922 180.625   2
   0 -10  18 804.031 260.240   2
   0 -10  19 2151.92 284.292   2
   0 -10  21 246.955 269.946   2
   0 -10  23 154.460 159.948   2
   0 -10  25 62.4156 148.183   2
   0 -10  27 190.863 164.864   2
   0 -10  29 1551.53 146.305   2
   0 -10  30 142.665 122.219   2
   0 -12  -1 3361.61 210.917   2
   0 -12  -3 11546.6 278.093   2
   0 -12   5 741.119 258.475   2
   0 -12   8 103.477 229.392   2
   0 -12  21 274.332 185.101   2
   0 -12  23 1498.85 165.393   2
   0 -12  25 1366.49 146.442   2
   0 -12  27 221.168 107.096   2
   0 -14  18 40.2242 149.948   2
   0 -14  19 307.840 145.092   2
   0 -14  21 40.6329 123.347   2
  -1  -1  37 11.5893 83.6474   2
  -1  -1  35 55.3138 86.7932   2
  -1  -1  33 232.154 89.9131   2
  -1  -1  32-20.0725 97.7874   2
  -1  -1  31 1903.03 190.330   2
  -1  -1  30 247.344 86.5436   2
  -1  -1  28 5394.69 108.573   2
   1   1 -26 8531.43 102.241   2
   1   1 -24 158.249 80.1628   2
  -1  -1  22 959.109 89.5452   2
  -1  -1  20 2180.13 166.870   2
  -1  -1  19 484.192 151.996   2
  -1  -1  17 1160.66 147.519   2
  -1  -1  15 318.224 139.274   2
  -1  -1  13 903.364 139.879   2
  -1  -1  11 134.638 117.407   2
  -1  -1   9 3651.40 129.055   2
  -1  -1   8 441.069 147.241   2
  -1  -1   7 354.760 108.475   2
  -1  -1   6 31945.1 152.880   2
  -1  -1   5 37653.5 246.117   2
  -1   1   4 37706.0 152.633   2
  -1  -1   3 62741.3 231.646   2
   1   1  -2 51.8950 20.7760   2
  -1   1   0 1594.84 27.3693   2
  -1   1  -1 1553.64 28.3538   2
  -1   1  -2 7349.14 44.8717   2
   1   1   3 5438.61 36.4687   2
   1   1   4 4557.37 49.3270   2
   1  -1   5 14224.3 94.0052   2
   1  -1   6 530.917 67.7596   2
   1  -1   7 7491.40 98.0812   2
   1  -1   9 2145.70 125.774   2
   1  -1  11 55447.9 313.805   2
   1  -1  13 496.856 134.550   2
   1  -1  15 19104.7 250.221   2
   1   1  17 2552.13 163.198   2
   1   1  18 221.372 147.528   2
   1  -1  20 340.596 114.401   2
   1  -1  22 11.1084 68.3761   2
  -1   1 -24 3263.57 85.7890   2
  -1   1 -26 4641.72 93.7392   2
   1  -1  28 2187.78 98.7712   2
   1  -1  30 667.784 98.8505   2
   1  -1  31 54.5798 88.6169   2
   1   1  32 780.563 118.147   2
   1  -1  33 14.3981 87.1402   2
   1   1  35 26.2168 83.0034   2
  -1   3  35 46.9803 73.3908   2
  -1  -3  34-74.9993 133.496   2
  -1  -3  33-12.3127 84.4261   2
  -1  -3  32 971.235 90.2047   2
  -1  -3  31 209.690 168.511   2
  -1  -3  30 136.438 94.8625   2
  -1  -3  28 117.192 103.454   2
  -1  -3  26 2461.52 111.338   2
  -1  -3  24 605.150 88.3536   2
  -1  -3  22 1129.15 88.4268   2
  -1  -3  20 116.180 91.1702   2
   1   3 -19 116.478 130.938   2
   1   3 -17 1064.04 137.405   2
   1   3 -15 271.974 92.2610   2
  -1  -3  13 435.962 72.1216   2
  -1   3  11 9709.53 87.8634   2
  -1   3   9 13132.7 94.2306   2
  -1   3   8 1100.22 66.2735   2
  -1   3   7 1727.35 59.8808   2
  -1   3   6 37275.0 170.141   2
  -1   3   5 1361.37 87.3298   2
  -1   3   4 38073.4 158.633   2
  -1   3   3 19801.4 207.120   2
  -1   3   2 111289. 299.523   2
  -1   3   0 65023.7 181.164   2
  -1  -3  -2 6415.42 83.6443   2
   1   3   3 93764.4 278.038   2
  -1   3  -4 10759.9 79.3871   2
  -1   3  -5 9145.28 105.596   2
  -1   3  -6 2986.67 68.3495   2
  -1   3  -7 168.604 70.8922   2
   1  -3   8 43112.5 338.466   2
   1   3   9 1178.57 77.7720   2
   1  -3  11 15075.3 118.276   2
  -1   3 -13 1403.55 81.6543   2
  -1   3 -15 29733.8 259.535   2
  -1   3 -17 2142.92 143.202   2
  -1   3 -18 3760.88 159.645   2
   1  -3  20 396.386 80.9254   2
   1  -3  22 26.8875 73.5964   2
   1  -3  24 13.4814 78.0655   2
   1  -3  26 2603.54 97.2723   2
   1  -3  28 259.353 104.890   2
   1  -3  30 4683.00 122.656   2
   1  -3  31 48.6173 96.6441   2
   1  -3  32 3224.71 188.334   2
   1  -3  33 71.4838 81.5165   2
   1  -3  35 70.3461 109.290   2
  -1  -5  35 62.3601 92.5784   2
  -1  -5  34 36.2349 84.0978   2
  -1  -5  33-11.9402 92.5544   2
  -1  -5  32 216.259 93.8729   2
  -1  -5  31-47.5642 172.451   2
  -1  -5  30 428.278 88.6062   2
  -1  -5  28 179.727 96.0331   2
  -1  -5  26 275.047 99.9470   2
  -1  -5  24 91.3641 84.7483   2
  -1  -5  22 19.5739 79.4340   2
   1   5 -20 97.3357 100.699   2
   1   5 -19 1565.66 186.442   2
   1   5 -17 4522.57 149.594   2
  -1  -5  15 504.021 108.363   2
  -1  -5  13 2800.02 107.976   2
   1   5 -11 21284.4 199.038   2
  -1   5   9 22198.8 221.389   2
  -1  -5   8 66.4668 146.760   2
  -1   5   7 17616.4 193.654   2
  -1   5   6 778.957 112.146   2
  -1   5   5 3059.03 175.786   2
  -1  -5   4 210.160 82.2372   2
   1  -5  -2 21588.4 183.557   2
   1  -5   0 12145.9 148.495   2
  -1  -5  -2 430.375 83.4157   2
  -1  -5  -4 82.9553 75.1824   2
  -1  -5  -5 32571.6 171.057   2
   1  -5   6 2915.02 116.799   2
   1  -5   7 15767.0 263.623   2
   1   5   9 25548.6 229.577   2
  -1   5 -11 21901.2 194.677   2
   1  -5  13 150.330 114.750   2
  -1   5 -15 4984.49 157.585   2
  -1   5 -17 5313.73 207.613   2
  -1   5 -18 182.476 90.8118   2
  -1   5 -20 141.822 98.8851   2
   1  -5  22 385.511 97.9933   2
   1  -5  24 60.3069 83.4368   2
   1  -5  26 1781.43 104.831   2
   1  -5  28 1224.77 99.6063   2
   1  -5  30 89.1590 119.073   2
   1  -5  31 9.65333 107.689   2
   1  -5  32 136.344 160.731   2
   1  -5  33 322.541 94.0211   2
   1  -5  35 16.9708 86.9998   2
  -1  -7  33 168.450 117.130   2
  -1  -7  32 330.775 87.7243   2
  -1  -7  31 141.738 94.6214   2
  -1  -7  30 1234.47 101.704   2
  -1  -7  28 402.792 107.801   2
  -1  -7  26 2849.99 132.448   2
  -1  -7  24 320.384 119.693   2
  -1  -7  22 2066.04 134.078   2
  -1  -7  20 319.420 118.970   2
  -1  -7  19 762.285 244.493   2
  -1  -7  17 2547.49 172.566   2
  -1  -7  15 956.313 123.480   2
  -1  -7  13 296.571 206.983   2
  -1  -7  11 3283.81 219.220   2
   1  -7  -9 2874.27 130.078   2
  -1  -7   8 4549.47 218.202   2
  -1  -7   7 265.104 175.842   2
   1  -7  -6 4236.77 142.186   2
   1  -7  -4 32313.8 227.226   2
   1  -7  -2 21018.1 227.376   2
   1  -7   0 6887.01 154.919   2
   1  -7   2 173.749 110.634   2
  -1  -7  -4 17202.0 172.840   2
   1  -7   5 4785.21 221.910   2
  -1  -7  -7 1587.98 114.577   2
   1  -7   9 2967.34 205.529   2
   1  -7  11 219.340 175.668   2
   1  -7  13 1512.18 218.305   2
   1  -7  15 1264.46 123.348   2
   1  -7  17 3853.02 275.966   2
   1  -7  18 1394.08 116.105   2
   1  -7  20 636.570 118.152   2
   1  -7  22 470.147 105.509   2
   1  -7  24 838.107 121.824   2
   1  -7  26 1085.13 121.654   2
   1  -7  28 251.421 108.558   2
   1  -7  30 1287.69 108.919   2
   1  -7  31 182.447 93.4986   2
   1  -7  32 806.369 87.2004   2
   1  -7  33 161.853 122.545   2
  -1  -9  32 317.136 109.571   2
  -1  -9  31 1049.22 134.700   2
  -1  -9  30 133.022 142.903   2
  -1  -9  28 132.682 140.992   2
  -1  -9  26 79.3135 149.993   2
  -1  -9  24 256.437 167.439   2
  -1  -9  22 282.273 284.799   2
  -1  -9  20 584.062 257.697   2
  -1  -9  19 201.218 179.818   2
  -1  -9  17 58.0700 167.995   2
  -1  -9  15 4158.30 158.467   2
  -1  -9  13 9389.67 209.189   2
  -1  -9  11 11404.4 347.769   2
  -1  -9   9 657.313 208.701   2
   1  -9  -6 392.259 130.830   2
   1  -9  -4 951.330 131.576   2
   1  -9  -2 6150.44 175.091   2
   1  -9   0 7860.55 146.329   2
  -1  -9  -2 11424.6 169.889   2
   1  -9   4 14241.6 187.290   2
   1  -9   7 159.136 190.541   2
   1  -9   9 20017.2 408.705   2
   1  -9  11 17303.9 405.643   2
   1  -9  13 5050.55 185.083   2
   1  -9  15 2762.09 148.431   2
   1  -9  17 193.906 176.611   2
   1  -9  18 670.279 178.427   2
   1  -9  20 339.018 251.643   2
   1  -9  22 1350.58 180.284   2
   1  -9  24 32.4529 163.131   2
   1  -9  26 791.185 152.788   2
   1  -9  28 116.390 164.969   2
   1  -9  30 157.253 142.955   2
   1  -9  31 23.6959 123.719   2
  -1 -11  28 116.510 121.294   2
  -1 -11  26 621.244 154.329   2
  -1 -11  24 23.6228 169.138   2
  -1 -11  22 476.733 156.414   2
  -1 -11  20 280.166 251.657   2
  -1 -11  19 3779.45 271.890   2
  -1 -11  17-67.6768 246.062   2
  -1 -11  13 1347.33 267.650   2
  -1 -11  11 2674.01 288.473   2
  -1 -11   9 432.188 242.025   2
  -1 -11   6 203.951 220.321   2
  -1 -11   4 8465.22 323.496   2
   1 -11  -2 4431.42 157.357   2
   1 -11   0 4245.75 199.764   2
  -1 -11  -2 66.6469 152.692   2
  -1 -11  -4 3661.84 184.188   2
   1 -11   7 509.406 247.663   2
   1 -11   9 1489.43 254.829   2
   1 -11  11 1158.91 260.976   2
   1 -11  13 17671.7 480.239   2
   1 -11  15 176.900 221.154   2
   1 -11  17 4664.97 266.784   2
   1 -11  18 459.773 249.287   2
   1 -11  20 209.500 197.117   2
   1 -11  22 29.1030 183.955   2
   1 -11  24 282.468 174.943   2
   1 -11  26 315.999 151.529   2
   1 -11  28 54.9194 125.011   2
   1 -11  29 108.569 108.502   2
  -1 -13  24 590.124 125.796   2
  -1 -13  22 120.462 140.424   2
  -1 -13  20 151.049 169.077   2
  -1 -13  19 80.1916 167.332   2
   1 -13  18 348.848 181.767   2
   1 -13  20 1158.52 174.656   2
   1 -13  22 1830.44 147.287   2
   1 -13  24-77.0071 118.908   2
  -1 -15  17 208.884 128.004   2
  -1 -15  15 988.023 145.390   2
  -2   0  36 172.620 110.038   2
  -2   0  34 508.661 150.711   2
  -2   0  20 2302.40 232.564   2
  -2   0  18 29242.3 428.660   2
  -2   0  16 1682.13 214.231   2
  -2   0  14 7349.81 250.315   2
  -2   0  12 2272.90 190.675   2
  -2   0  10 69001.7 463.648   2
  -2   0   8 3697.02 186.380   2
  -2   0   0 332.770 19.3417   2
   2   0   2 60022.4 98.5772   2
   2   0   4 435576. 446.219   2
   2   0   6 15796.3 224.558   2
   2   0   8 7951.53 210.240   2
   2   0  10 12850.7 261.156   2
   2   0  12 4730.14 218.087   2
   2   0  14 7297.06 259.136   2
   2   0  16 1980.36 217.519   2
   2   0  30 59.4263 134.049   2
   2   0  32 2238.46 128.071   2
   2   0  34 1245.25 140.916   2
   2   0  36 266.972 91.4518   2
  -2   2  36 21.7243 71.1927   2
  -2  -2  35 634.154 91.5372   2
  -2  -2  34 140.666 102.364   2
  -2  -2  33 146.963 90.1734   2
  -2  -2  32 1666.99 165.539   2
  -2  -2  31 101.375 94.6376   2
  -2  -2  29 859.179 107.917   2
  -2  -2  27 286.852 104.678   2
   2   2 -25 571.828 93.5197   2
  -2  -2  23 286.999 99.6312   2
   2   2 -22 124.026 293.919   2
  -2  -2  21 5412.27 112.606   2
   2   2 -20 318.728 134.135   2
  -2  -2  18 222.240 147.543   2
  -2  -2  16 240.670 144.435   2
  -2  -2  14 189.248 143.250   2
  -2  -2  12 250.183 135.835   2
  -2  -2  10 14637.2 195.500   2
  -2  -2   9 1074.99 110.787   2
   2  -2  -8 80.7731 67.1504   2
   2  -2  -7 3864.40 88.7962   2
  -2  -2   6 663.908 122.671   2
   2   2  -5 1929.34 59.0753   2
  -2   2   3 1282.27 47.6461   2
  -2   2   1 3208.98 50.8061   2
  -2  -2   0 20279.9 134.888   2
  -2   2  -1 209096. 209.821   2
  -2  -2  -2 20672.4 78.2976   2
  -2   2  -3 8039.95 102.176   2
  -2   2  -4 9180.26 79.1861   2
  -2   2  -5 1860.24 52.9894   2
  -2   2  -6 3343.75 54.5571   2
   2   2   7 18615.9 124.173   2
   2  -2   8 10384.5 48.9416   2
  -2  -2 -10 1460.76 45.8495   2
   2   2  12 1108.30 76.6701   2
  -2   2 -14 331.662 122.675   2
  -2   2 -16 2923.28 145.759   2
  -2   2 -17 3553.07 150.973   2
  -2   2 -19 2610.35 98.7800   2
  -2   2 -21 1636.65 72.1026   2
  -2   2 -23 8527.12 96.4615   2
  -2   2 -25 186.353 83.1381   2
   2  -2  27 1328.62 96.5069   2
   2   2  29 2032.63 145.313   2
   2  -2  30 717.128 93.1516   2
   2   2  31 110.381 162.900   2
   2  -2  32 42.0273 94.3981   2
   2   2  34-0.96624 74.4227   2
   2  -2  36 12.9032 90.4263   2
  -2  -4  36 147.445 89.4804   2
  -2  -4  35 247.742 111.218   2
  -2  -4  34 122.946 92.9498   2
  -2  -4  33 93.3320 80.9160   2
  -2  -4  32 991.393 158.228   2
  -2  -4  31-84.7190 86.3337   2
  -2  -4  29 331.714 100.472   2
  -2  -4  27 113.149 100.863   2
  -2  -4  25 319.287 88.4605   2
  -2  -4  23 145.598 95.2105   2
   2   4 -21 3968.86 117.599   2
   2   4 -20 196.111 155.737   2
   2   4 -18 19308.7 290.418   2
   2   4 -16 27649.2 230.239   2
  -2  -4  14 323.260 105.260   2
  -2  -4  12 15710.3 148.247   2
  -2   4  10 20837.9 179.962   2
  -2  -4   9 2996.92 182.474   2
  -2   4   8 106.629 95.1943   2
   2   4  -7 2802.87 93.0700   2
  -2   4   6 3402.18 157.880   2
  -2   4   5 624.820 91.3023   2
  -2   4   3 13596.0 117.425   2
  -2   4   1 17176.5 154.502   2
   2  -4   1 36477.5 194.460   2
   2  -4   2 7078.62 101.954   2
  -2  -4  -3 16870.8 131.438   2
  -2  -4  -4 2474.76 74.3072   2
   2  -4   5 12128.5 217.527   2
  -2  -4  -6 13358.5 120.859   2
   2  -4   7 446.782 131.774   2
  -2   4  -8 4313.10 100.377   2
  -2   4 -10 558.651 89.8822   2
   2  -4  12 27267.7 171.163   2
  -2   4 -14 7418.28 161.478   2
  -2   4 -16 1282.22 170.334   2
  -2   4 -17 3045.14 184.659   2
   2  -4  19 473.190 85.7393   2
   2  -4  21 399.861 75.7545   2
   2  -4  23 1524.99 82.0734   2
   2  -4  25 500.041 100.343   2
   2  -4  27 1129.95 104.742   2
   2  -4  29 1591.12 196.766   2
   2  -4  30 34.2731 88.1282   2
   2  -4  31-39.4784 167.777   2
   2  -4  32 20.3100 107.153   2
   2  -4  34 529.151 88.2063   2
  -2  -6  34 57.1319 73.6756   2
  -2  -6  33 175.342 84.3127   2
  -2  -6  32 86.3035 95.1663   2
  -2  -6  31 176.455 98.4953   2
  -2  -6  29 814.364 116.479   2
  -2  -6  27 35.5107 119.926   2
  -2  -6  25 54.6959 118.770   2
  -2  -6  23 19.6974 106.151   2
  -2  -6  21 129.349 115.953   2
  -2  -6  20 269.247 224.913   2
  -2  -6  18 16059.4 173.826   2
  -2  -6  16 1844.32 122.245   2
  -2  -6  14 596.541 113.955   2
  -2   6  12 17230.8 236.906   2
  -2   6  10 6717.34 170.554   2
  -2  -6   9 69.4984 159.593   2
  -2  -6   8 262.041 167.347   2
  -2   6   7 3172.31 148.253   2
  -2   6   5 2295.23 139.629   2
   2  -6  -3 2591.05 98.5566   2
   2  -6  -1 46146.3 284.651   2
   2  -6   1 10285.8 160.328   2
  -2  -6  -3 1683.12 103.219   2
  -2  -6  -4 37481.8 243.167   2
  -2  -6  -5 3812.47 118.935   2
  -2  -6  -6 5948.40 110.800   2
  -2  -6  -8 1269.29 91.0758   2
   2  -6  10 4270.94 227.178   2
   2  -6  12 20878.1 369.116   2
   2  -6  14 654.041 144.002   2
   2  -6  16 498.833 151.227   2
   2  -6  17 293.808 101.099   2
   2  -6  19 1040.20 110.053   2
   2  -6  21 1421.37 105.776   2
   2  -6  23 706.901 108.538   2
   2  -6  25 16.4573 120.656   2
   2  -6  27 75.5763 115.303   2
   2  -6  29 151.397 118.534   2
   2  -6  30 399.211 110.244   2
   2  -6  31 225.690 163.940   2
   2  -6  32 243.881 91.9235   2
   2  -6  34 20.5409 110.068   2
  -2  -8  33 60.8186 104.952   2
  -2  -8  32 1063.18 132.712   2
  -2  -8  31 23.0945 139.494   2
  -2  -8  29 169.896 138.932   2
  -2  -8  27 154.070 101.545   2
  -2  -8  25 473.890 165.566   2
  -2  -8  23 90.1441 285.767   2
  -2  -8  21 6239.85 226.544   2
  -2  -8  20 36.6340 177.946   2
  -2  -8  18 939.334 180.807   2
  -2  -8  16 1598.92 168.001   2
  -2  -8  14 6480.60 187.256   2
  -2  -8  12 7294.79 301.225   2
   2  -8 -10 3607.44 153.832   2
   2  -8  -7 1545.57 132.226   2
   2  -8  -5 12568.0 212.677   2
   2  -8  -3 913.282 131.846   2
   2  -8  -1 192.958 91.7663   2
   2  -8   1 13926.5 204.061   2
   2  -8   3 839.629 119.436   2
   2  -8   5 2070.79 200.789   2
   2  -8   6 6891.05 190.262   2
   2  -8   8 7018.74 269.430   2
   2  -8  10 12870.3 337.631   2
   2  -8  12 5607.51 270.019   2
   2  -8  14 2507.05 134.110   2
   2  -8  16 1019.76 130.999   2
   2  -8  17 67.7856 161.289   2
   2  -8  19 240.853 173.049   2
   2  -8  21 496.257 113.632   2
   2  -8  23 1662.96 122.164   2
   2  -8  25 76.6522 109.244   2
   2  -8  27 32.1303 103.675   2
   2  -8  29 342.246 97.4263   2
   2  -8  30 580.426 90.2676   2
   2  -8  31 957.454 145.935   2
   2  -8  32 17.8279 121.080   2
  -2 -10  31 164.454 102.251   2
  -2 -10  29 43.1812 136.534   2
  -2 -10  27 69.0125 162.067   2
  -2 -10  25 355.132 153.478   2
  -2 -10  23 338.483 167.231   2
  -2 -10  21 740.261 277.444   2
  -2 -10  20 231.190 274.253   2
  -2 -10  18 3022.37 282.862   2
  -2 -10  16 3750.32 198.092   2
  -2 -10  14 1413.58 168.023   2
  -2 -10  12 1994.33 275.349   2
  -2 -10  10 3587.78 264.672   2
  -2 -10   7 1823.51 223.666   2
   2 -10  -5 484.325 133.595   2
   2 -10  -3 6130.36 192.876   2
   2 -10  -1 3034.20 168.389   2
   2 -10   1 1802.54 126.145   2
  -2 -10  -3 843.616 144.418   2
   2 -10   6 443.912 217.455   2
   2 -10   8 972.658 227.277   2
   2 -10  10 16981.3 422.624   2
   2 -10  12 118.359 240.895   2
   2 -10  14 861.214 143.704   2
   2 -10  16 3758.25 164.062   2
   2 -10  17 4783.53 273.226   2
   2 -10  19 445.349 256.266   2
   2 -10  21 200.905 157.497   2
   2 -10  23 509.746 192.398   2
   2 -10  25 453.918 177.232   2
   2 -10  27 463.839 159.297   2
   2 -10  29 110.709 128.098   2
   2 -10  30 64.0563 109.223   2
  -2 -12  27 63.0974 116.648   2
  -2 -12  25 854.354 145.428   2
  -2 -12  23 185.353 167.363   2
  -2 -12   7 751.692 253.424   2
   2 -12  -5 3038.08 209.420   2
   2 -12  -3 940.532 190.116   2
   2 -12  -1 106.569 179.420   2
   2 -12   1 8719.67 367.458   2
   2 -12   3 4260.18 309.061   2
   2 -12   6 1379.05 269.349   2
   2 -12   8 3955.17 307.154   2
   2 -12  19 916.437 197.765   2
   2 -12  21 3314.26 199.461   2
   2 -12  23 2061.09 174.414   2
   2 -12  25 56.0356 134.904   2
   2 -12  27 146.264 107.788   2
  -2 -14  23 5.21597 104.177   2
  -2 -14  21 20.6041 126.014   2
  -2 -14  20 49.1655 138.544   2
  -2 -14  18 1437.60 165.715   2
   2 -14  16 349.481 158.304   2
   2 -14  17 83.5382 154.929   2
   2 -14  19 629.564 141.506   2
   2 -14  21 35.5166 117.500   2
  -3   1  37 68.1991 61.0906   2
  -3  -1  36 101.787 77.1553   2
  -3  -1  35 140.994 93.7231   2
  -3  -1  34 183.565 109.073   2
  -3  -1  32 48.5548 87.1386   2
  -3  -1  30 845.412 102.944   2
  -3  -1  28 2882.34 114.286   2
   3   1 -26 152.213 96.0469   2
   3   1 -24 798.359 102.673   2
  -3  -1  22 1823.78 103.523   2
  -3  -1  21 8478.15 146.291   2
  -3  -1  19 17628.7 260.117   2
  -3  -1  17 6292.54 186.467   2
  -3  -1  15 15117.7 218.857   2
  -3  -1  13 432.638 130.784   2
  -3  -1  11 13230.5 182.892   2
  -3  -1   9 1118.84 132.047   2
  -3  -1   8 2255.92 133.424   2
  -3  -1   6 161205. 377.164   2
  -3   1   4 9151.43 140.524   2
   3  -1  -2 14835.2 76.9755   2
   3  -1  -1 245.840 48.6350   2
  -3  -1   0 38904.0 138.275   2
  -3   1  -1 5405.54 59.4537   2
   3   1   2 2805.98 31.2773   2
  -3   1  -3 42991.0 123.806   2
  -3   1  -4 72.3158 41.6210   2
   3  -1   5 1150.75 49.0545   2
   3  -1   6 45453.9 263.995   2
   3   1   7 487.793 37.2731   2
   3   1   8 2053.72 54.7451   2
   3   1   9 41799.0 116.912   2
   3   1  11 936.912 50.4560   2
   3  -1  13 6371.50 174.774   2
   3  -1  15 3791.89 169.484   2
   3  -1  16 6801.89 193.644   2
   3  -1  18 226.848 151.721   2
  -3   1 -20 130.538 64.1786   2
  -3   1 -22 191.260 71.6558   2
  -3   1 -24 2652.58 85.4121   2
   3  -1  26 1718.36 98.1597   2
   3   1  28 68.1238 141.158   2
   3  -1  29 3326.09 111.287   2
   3   1  30 4116.04 208.362   2
   3  -1  31 615.387 88.1109   2
   3   1  33 1409.23 92.0326   2
   3   1  35 263.278 75.5296   2
  -3  -3  36 216.527 105.455   2
  -3  -3  35 139.504 80.6431   2
  -3  -3  34 128.406 94.5375   2
  -3  -3  33 654.382 121.118   2
  -3  -3  32 98.4531 85.5333   2
  -3  -3  30 293.391 95.7603   2
  -3  -3  28 234.150 103.380   2
  -3  -3  26 250.972 104.280   2
   3   3 -24 1869.19 106.954   2
   3   3 -23 5.11900 289.932   2
  -3  -3  22 369.052 99.4508   2
  -3  -3  21 208.780 109.019   2
   3   3 -19 3181.92 153.618   2
   3   3 -17 850.244 102.858   2
  -3   3  15 10542.1 144.937   2
  -3   3  13 10385.6 119.042   2
  -3   3  11 16906.3 128.360   2
  -3  -3  10 6694.81 115.051   2
  -3   3   9 7045.20 135.940   2
  -3   3   8 1570.22 67.9314   2
  -3   3   7 7919.86 129.741   2
  -3   3   6 32907.0 138.511   2
  -3   3   4 19533.2 124.512   2
  -3   3   2 15697.2 87.3501   2
  -3   3   0 135064. 310.114   2
  -3   3  -1 9235.69 83.3356   2
  -3  -3  -2 79551.5 162.457   2
  -3  -3  -3 2073.25 52.4716   2
  -3   3  -4 317.394 42.8284   2
  -3   3  -5 36434.3 223.277   2
   3  -3   6 75648.6 423.831   2
  -3   3  -7 2672.01 90.1945   2
  -3   3  -9 9144.95 161.845   2
   3  -3  11 3382.69 122.124   2
  -3   3 -13 6808.34 132.031   2
  -3   3 -15 11085.2 182.728   2
  -3   3 -16 4734.02 191.988   2
   3  -3  18 1102.68 123.027   2
   3  -3  20 27.5206 68.3967   2
   3  -3  22 74.0286 74.1454   2
  -3   3 -24 1323.76 84.4474   2
   3  -3  26 12.0617 90.9055   2
   3   3  28 494.350 139.809   2
   3   3  29 1309.59 89.2786   2
   3   3  30 4415.05 195.558   2
   3  -3  31 62.3235 94.8657   2
   3   3  33 382.424 79.1267   2
   3  -3  35 179.640 75.3960   2
  -3  -5  35-24.1372 95.0197   2
  -3  -5  34-27.9124 82.5487   2
  -3  -5  33 477.269 98.0537   2
  -3  -5  32 66.0197 96.6680   2
  -3  -5  30 164.204 89.4810   2
  -3  -5  28 201.419 95.0617   2
  -3  -5  26 56.5139 99.5911   2
  -3  -5  24 129.730 101.048   2
   3   5 -23 189.380 182.651   2
   3   5 -22 281.349 111.203   2
   3   5 -21 651.886 180.451   2
   3   5 -19 1587.33 106.927   2
   3   5 -17 3174.52 138.131   2
   3   5 -15 2237.09 127.523   2
  -3  -5  13 7714.29 131.339   2
   3   5 -11 11956.0 171.387   2
  -3  -5  10 3134.45 196.294   2
  -3  -5   9 7194.87 227.600   2
  -3   5   8 1573.06 125.969   2
  -3   5   6 455.892 111.486   2
  -3   5   4 363.096 106.403   2
  -3   5   2 35862.0 230.880   2
   3  -5   0 637.989 90.3206   2
   3  -5   1 2924.09 98.7124   2
   3  -5   2 16693.4 155.045   2
   3  -5   3 22843.1 171.494   2
  -3  -5  -4 10189.4 123.630   2
  -3  -5  -5 27221.7 178.260   2
   3  -5   7 4569.62 75.1325   2
   3  -5   9 63450.2 517.991   2
  -3   5 -11 3979.95 172.765   2
   3  -5  13 1360.32 122.218   2
  -3   5 -15 18084.0 222.817   2
  -3   5 -16 5036.41 158.263   2
  -3   5 -18 2932.84 103.935   2
   3  -5  20 1704.54 89.1467   2
   3  -5  22 369.448 87.7995   2
   3  -5  24 369.985 115.964   2
   3  -5  26 2463.54 133.162   2
   3  -5  28 948.934 198.568   2
   3  -5  29 452.970 125.818   2
   3  -5  31 540.870 109.588   2
   3  -5  33 780.716 93.3930   2
  -3  -7  33 83.2768 118.599   2
  -3  -7  32 486.089 82.9318   2
  -3  -7  30 56.5879 95.2206   2
  -3  -7  28 2504.22 122.669   2
  -3  -7  26 6.36492 117.205   2
  -3  -7  24 2256.37 128.512   2
  -3  -7  22 4075.21 145.117   2
  -3  -7  21 309.415 247.474   2
  -3  -7  19 1864.07 189.105   2
  -3  -7  17 7874.25 203.852   2
  -3  -7  15 367.787 116.282   2
  -3  -7  13 1068.69 145.307   2
  -3  -7  11 1184.25 144.960   2
  -3  -7   9 362.197 171.091   2
  -3   7   8 5363.47 173.808   2
  -3   7   6 9456.35 154.958   2
   3  -7  -4 49884.8 343.199   2
   3  -7  -2 11572.0 189.298   2
   3  -7   0 34179.5 216.514   2
   3  -7   2 23451.1 224.982   2
   3  -7   4 2965.76 207.654   2
  -3  -7  -5 2412.78 114.137   2
   3  -7   7 288.682 119.463   2
   3  -7   9 5958.79 248.021   2
   3  -7  11 1260.14 213.563   2
   3  -7  13 623.435 205.440   2
   3  -7  15 504.403 119.971   2
   3  -7  16 533.283 126.420   2
   3  -7  18 1171.31 111.311   2
   3  -7  20 149.130 100.205   2
   3  -7  22 68.7442 111.796   2
   3  -7  24 963.589 119.765   2
   3  -7  26-33.3461 116.663   2
   3  -7  28 1926.73 202.986   2
   3  -7  29 145.896 107.209   2
   3  -7  31 247.091 92.5985   2
   3  -7  33 209.080 111.251   2
  -3  -9  32 26.1688 109.096   2
  -3  -9  30-4.51116 136.891   2
  -3  -9  28 319.327 134.495   2
  -3  -9  26 38.6398 154.271   2
  -3  -9  24 1120.08 168.266   2
  -3  -9  22 897.062 305.188   2
  -3  -9  21 806.588 279.736   2
  -3  -9  19 4656.29 221.382   2
  -3  -9  17 469.679 183.085   2
  -3  -9  15 47.6601 162.386   2
  -3  -9  13 394.462 153.318   2
  -3  -9  11 2090.04 248.969   2
   3  -9  -8 575.402 133.964   2
   3  -9  -6 98.3296 128.311   2
   3  -9  -4 1.24149 121.169   2
   3  -9  -2 57.9768 124.999   2
   3  -9   0 280.565 124.274   2
  -3  -9  -2 40410.3 342.868   2
   3  -9   5 692.738 141.736   2
   3  -9   7 1278.96 207.461   2
   3  -9   9 16030.7 368.687   2
   3  -9  11 6418.16 185.833   2
   3  -9  13 522.813 157.978   2
   3  -9  15 172.274 127.498   2
   3  -9  16 1984.21 152.383   2
   3  -9  18 2327.71 183.284   2
   3  -9  20 752.405 159.178   2
   3  -9  22 56.1996 156.177   2
   3  -9  24 604.899 160.434   2
   3  -9  26 420.025 186.666   2
   3  -9  28 318.296 166.452   2
   3  -9  29 491.625 157.798   2
   3  -9  31 597.803 122.034   2
  -3 -11  28 36.4800 122.696   2
  -3 -11  26 139.752 150.384   2
  -3 -11  24 464.974 143.744   2
  -3 -11  22 1620.87 259.747   2
  -3 -11  21 765.318 272.071   2
  -3 -11  19 312.269 257.736   2
  -3 -11  17 8269.49 295.310   2
  -3 -11  13 8023.02 365.833   2
  -3 -11  11 86.1422 235.793   2
  -3 -11   8 2158.11 248.987   2
  -3 -11   6 11136.9 355.427   2
   3 -11  -4 11071.5 241.597   2
   3 -11  -2 2457.45 178.897   2
   3 -11   0 7165.90 181.767   2
   3 -11   2 616.553 151.499   2
   3 -11   5 3796.94 276.802   2
   3 -11   7 7595.82 328.636   2
   3 -11   9 1915.20 274.485   2
   3 -11  11 15917.6 439.642   2
   3 -11  20 2708.76 212.264   2
   3 -11  22 11.9184 187.077   2
   3 -11  24 140.804 166.958   2
   3 -11  26 10.2658 146.433   2
   3 -11  28-9.14664 118.907   2
  -3 -13  24-77.5153 121.580   2
  -3 -13  22 94.3516 149.002   2
  -3 -13  21-17.2697 153.598   2
   3 -13  16 810.409 185.210   2
   3 -13  18 2074.99 178.603   2
   3 -13  20 1781.27 158.105   2
   3 -13  22 56.0561 135.977   2
   3 -13  24 778.392 115.162   2
  -3 -15  19 124.216 107.599   2
  -3 -15  17 1705.78 139.630   2
  -4   0  36-19.5945 116.412   2
  -4   0  34 65.1806 155.207   2
  -4   0  24 5745.51 198.532   2
  -4   0  22 1063.48 225.351   2
  -4   0  20 6610.74 279.755   2
  -4   0  18 2493.53 225.230   2
  -4   0  16 417.329 197.373   2
  -4   0  14 15833.7 302.742   2
  -4   0  12 1087.72 176.578   2
  -4   0  10 48516.5 382.042   2
   4   0   0 51051.5 138.825   2
   4   0   2 115180. 286.073   2
   4   0   4 27780.4 89.6140   2
   4   0   6 1143.36 70.1921   2
   4   0   8 48223.9 343.325   2
   4   0  10 6366.31 209.202   2
   4   0  12 294.750 181.500   2
   4   0  14 1145.00 203.592   2
   4   0  28 203.590 141.579   2
   4   0  30 515.297 137.639   2
   4   0  32 61.3065 115.316   2
   4   0  34 269.166 121.774   2
  -4  -2  37 17.5940 88.5399   2
  -4  -2  36-27.7929 74.1218   2
  -4  -2  35 78.4147 89.9825   2
  -4  -2  34 36.6450 102.011   2
  -4  -2  33 439.878 101.066   2
  -4  -2  31 448.213 94.4504   2
  -4  -2  29 855.311 106.273   2
  -4  -2  27 274.639 121.627   2
  -4  -2  25 370.765 104.846   2
   4   2 -24 2006.21 345.054   2
   4   2 -23 2959.50 112.288   2
   4   2 -22 1209.18 112.641   2
  -4  -2  20 331.877 121.858   2
  -4  -2  18 6432.79 201.903   2
  -4  -2  16 1187.28 150.865   2
  -4  -2  14 1250.27 157.112   2
  -4  -2  12 20859.9 245.749   2
  -4  -2  11 12022.3 263.877   2
  -4  -2  10 3070.04 139.432   2
   4  -2  -9 2515.32 106.495   2
   4  -2  -7 3612.10 117.703   2
   4   2  -5 7544.96 76.3636   2
   4  -2  -3 12574.3 125.588   2
  -4   2   1 15584.0 90.5426   2
  -4   2   0 7161.80 70.3475   2
  -4   2  -1 1116.38 41.7952   2
  -4   2  -2 90536.9 137.131   2
  -4   2  -3 86011.3 201.833   2
  -4   2  -4 71783.2 259.986   2
   4  -2   5 281844. 687.090   2
  -4   2  -6 125106. 285.905   2
   4  -2   8 76712.9 223.993   2
  -4   2 -10 1500.84 84.8014   2
  -4   2 -12 5173.82 116.344   2
  -4   2 -14 5130.39 151.946   2
  -4   2 -15 2624.50 175.889   2
  -4   2 -17 5340.24 165.505   2
  -4   2 -19 17316.6 100.017   2
  -4   2 -21 6465.07 86.8945   2
  -4   2 -23 811.683 79.4275   2
  -4   2 -25 2855.30 96.4153   2
   4   2  27 2599.51 157.503   2
   4  -2  28 336.793 98.7671   2
   4   2  29 3727.88 223.392   2
   4  -2  30 27.9310 90.5885   2
   4   2  32 41.0289 74.6454   2
   4   2  34 464.559 70.9592   2
   4  -2  36-15.3938 83.5418   2
  -4  -4  36 117.042 94.2095   2
  -4  -4  35 10.4043 113.635   2
  -4   4  34 67.9478 85.2268   2
  -4  -4  33 67.0275 76.1173   2
  -4  -4  31 58.6913 88.8709   2
  -4  -4  29 281.683 98.3032   2
  -4  -4  27 1085.41 104.766   2
  -4  -4  25 41.4887 101.850   2
   4   4 -24 56.9730 331.362   2
  -4  -4  23 2450.21 104.851   2
   4   4 -22 96.5809 175.937   2
   4   4 -20 7372.06 172.364   2
   4   4 -18 419.112 120.775   2
  -4   4  16 22011.8 220.052   2
  -4   4  14 54607.4 243.871   2
  -4   4  12 26063.3 174.023   2
   4  -4 -11 3390.02 133.026   2
  -4  -4  10 862.745 182.824   2
  -4   4   9 1302.25 80.8538   2
   4  -4  -7 10863.4 124.255   2
  -4   4   5 4165.72 116.148   2
  -4   4   3 106.879 88.0891   2
  -4  -4   1 810.809 81.2383   2
  -4  -4   0 3838.09 105.118   2
  -4   4  -1 28532.2 204.313   2
  -4   4  -2 2654.11 68.6150   2
   4  -4   3 124.255 59.0136   2
  -4  -4  -4 25131.3 121.860   2
  -4  -4  -5 8454.99 88.0206   2
  -4  -4  -6 9886.53 82.6627   2
  -4   4  -8 5487.62 65.9359   2
  -4   4 -10 2480.51 147.332   2
   4  -4  12 416.879 113.878   2
  -4   4 -14 2039.13 130.527   2
   4  -4  15 386.940 120.339   2
   4  -4  17 227.705 99.4929   2
   4  -4  19 205.362 81.9991   2
   4  -4  21 79.6703 75.0677   2
  -4   4 -23 444.576 78.4077   2
   4  -4  25 153.645 89.3633   2
   4   4  27 65.0850 142.594   2
   4  -4  28 3611.30 97.0453   2
   4   4  30 1127.46 97.0464   2
   4  -4  32 175.627 106.576   2
   4  -4  34-20.4905 82.8232   2
  -4  -6  34 47.1316 73.5283   2
  -4  -6  33 729.654 83.7872   2
  -4  -6  31 1173.89 105.615   2
  -4  -6  29 353.379 114.476   2
  -4  -6  27 17.8699 117.097   2
  -4  -6  25 102.522 118.873   2
  -4  -6  23 843.131 128.350   2
  -4  -6  22 175.701 232.296   2
  -4  -6  20 9014.48 156.708   2
  -4  -6  18 179.807 124.058   2
  -4  -6  16 267.707 113.390   2
  -4  -6  14 13202.7 224.490   2
  -4  -6  12 127.972 144.223   2
  -4  -6  11 12668.8 309.774   2
  -4  -6  10 2733.15 222.698   2
  -4  -6   9 752.555 135.546   2
  -4   6   7 401.579 123.148   2
  -4   6   5 2573.46 140.797   2
  -4   6   3 22923.1 230.395   2
   4  -6  -1 1941.95 115.104   2
   4  -6   1 752.795 99.0262   2
   4  -6   2 1250.83 104.180   2
   4  -6   3 37560.9 241.214   2
  -4  -6  -4 620.492 94.4487   2
   4  -6   6 946.251 74.0396   2
   4  -6   8 6586.09 171.249   2
   4  -6  10 18089.3 341.769   2
   4  -6  12 183.533 178.017   2
   4  -6  14 348.945 138.272   2
   4  -6  15 4669.25 136.639   2
   4  -6  17 1110.59 99.9989   2
   4  -6  19 8904.93 115.108   2
   4  -6  21 4756.19 107.927   2
   4  -6  23 143.373 117.401   2
   4  -6  25 2477.58 132.103   2
   4  -6  27 467.910 201.382   2
   4  -6  28 1006.47 127.815   2
   4  -6  30 618.473 110.870   2
   4  -6  32 75.4994 88.1450   2
  -4  -8  33 121.519 103.560   2
  -4  -8  31-22.5665 120.331   2
  -4  -8  29 425.930 144.238   2
  -4  -8  27 226.220 153.572   2
  -4  -8  25 128.589 161.336   2
  -4  -8  23 526.825 308.521   2
  -4  -8  22 23.2724 290.453   2
  -4  -8  20 238.798 183.253   2
  -4  -8  18 229.884 176.158   2
  -4  -8  16 270.333 164.045   2
  -4  -8  14 7390.06 196.407   2
  -4  -8  12 131.295 190.395   2
  -4  -8  11 365.714 199.015   2
   4  -8  -9 1060.73 134.165   2
   4  -8  -7 3552.50 150.804   2
   4  -8  -5 192.177 124.879   2
   4  -8  -3 15631.9 236.903   2
   4  -8  -1 9204.69 194.649   2
   4  -8   1 44795.8 333.959   2
  -4  -8  -3 6958.29 193.525   2
   4  -8   4 98.2882 175.843   2
   4  -8   6 1005.02 149.488   2
   4  -8   8 30968.0 456.744   2
   4  -8  10 8911.18 302.168   2
   4  -8  12 1720.37 140.280   2
   4  -8  14 1456.77 130.238   2
   4  -8  15 2004.14 137.539   2
   4  -8  17 2344.54 145.290   2
   4  -8  19 276.063 98.8762   2
   4  -8  21 239.220 114.675   2
   4  -8  23 153.468 113.369   2
   4  -8  25 118.009 120.459   2
   4  -8  27 516.342 186.343   2
   4  -8  28 17.3466 102.118   2
   4  -8  30 46.1368 85.8377   2
   4  -8  32 53.6534 115.628   2
  -4 -10  31-30.5403 102.632   2
  -4 -10  29 38.7237 131.428   2
  -4 -10  27 51.2811 130.473   2
  -4 -10  25 2646.50 171.661   2
  -4 -10  23 2263.16 285.879   2
  -4 -10  22 140.960 290.754   2
  -4 -10  20 2337.68 284.639   2
  -4 -10  18 260.117 265.057   2
  -4 -10  16 9277.27 229.359   2
  -4 -10  14 27.4624 215.434   2
  -4 -10  12 1966.54 267.897   2
  -4 -10   9 262.654 200.033   2
   4 -10  -7 4803.89 192.415   2
   4 -10  -5 979.699 146.529   2
   4 -10  -3 293.314 142.605   2
   4 -10  -1 88.2759 136.301   2
   4 -10   1 4017.47 174.919   2
   4 -10   4 265.118 149.206   2
   4 -10   6 5656.77 296.950   2
   4 -10   8 32667.4 532.739   2
   4 -10  10 1393.35 252.348   2
   4 -10  12 832.160 156.159   2
   4 -10  14 1230.33 136.679   2
   4 -10  15 205.843 138.697   2
   4 -10  17 1651.56 233.338   2
   4 -10  19 124.994 201.219   2
   4 -10  21 1528.51 209.467   2
   4 -10  23 79.5060 185.807   2
   4 -10  25 65.8143 170.325   2
   4 -10  27 55.8249 149.874   2
   4 -10  28 130.224 142.203   2
  -4 -12  27 724.281 123.172   2
  -4 -12  25 175.164 141.512   2
  -4 -12  23 113.076 161.102   2
  -4 -12  20-89.1991 230.336   2
  -4 -12   9 2089.77 276.893   2
  -4 -12   7 98.4113 250.766   2
  -4 -12   5 5425.17 319.365   2
   4 -12  -3 5562.93 193.567   2
   4 -12  -1 4621.47 234.240   2
   4 -12   1 4023.15 327.695   2
   4 -12   4 219.119 255.720   2
   4 -12   6 3602.80 309.302   2
   4 -12   8 3552.24 309.581   2
   4 -12  17 523.474 199.219   2
   4 -12  19 572.957 176.050   2
   4 -12  21 763.767 186.479   2
   4 -12  23 28.6705 140.306   2
   4 -12  25 1556.74 140.784   2
  -4 -14  23 374.827 102.435   2
  -4 -14  22 262.824 119.150   2
  -4 -14  20 675.198 143.359   2
   4 -14  17 725.237 146.030   2
   4 -14  19 472.198 128.458   2
  -5  -1  37 97.9299 64.2986   2
  -5  -1  36 77.1485 80.6337   2
  -5  -1  35 299.968 95.7274   2
  -5  -1  34-30.0625 108.521   2
  -5  -1  32 118.839 109.520   2
  -5  -1  30 7.72481 120.882   2
  -5  -1  28 988.524 125.365   2
   5   1 -26 3548.14 121.801   2
   5   1 -25 49.0643 127.341   2
  -5  -1  24 1772.87 112.825   2
  -5  -1  23 4945.61 139.975   2
  -5  -1  21 19564.1 206.105   2
  -5  -1  19 12003.6 233.324   2
  -5  -1  17 879.404 145.004   2
  -5  -1  15 26510.7 259.585   2
  -5  -1  13 2870.50 146.294   2
  -5  -1  11 3374.87 146.249   2
  -5  -1  10 29371.0 240.836   2
  -5  -1   8 19294.1 185.877   2
  -5  -1   6 3204.29 108.817   2
  -5   1   4 213527. 525.022   2
   5  -1  -2 15205.5 94.6106   2
   5  -1  -1 8792.61 98.6257   2
  -5  -1   0 27943.5 90.1558   2
  -5   1  -1 4979.77 95.8402   2
  -5   1  -2 51876.0 128.580   2
  -5   1  -3 2456.73 41.8146   2
  -5   1  -4 8798.59 59.2445   2
   5  -1   5 1947.15 48.3922   2
  -5   1  -7 41659.9 152.462   2
   5  -1   9 35087.7 180.426   2
   5  -1  11 944.375 126.980   2
   5  -1  13 34606.3 287.396   2
  -5   1 -16 7319.15 174.709   2
  -5   1 -18 10220.4 197.334   2
  -5   1 -20 1552.00 70.7668   2
  -5   1 -22 375.745 74.5402   2
  -5   1 -24 345.870 78.4817   2
   5   1  26 623.874 154.339   2
   5  -1  27 1368.87 105.169   2
   5  -1  29 204.615 94.9607   2
   5   1  31 2630.81 93.0468   2
   5   1  33 502.214 69.7512   2
   5   1  35 1545.51 72.6692   2
  -5  -3  37 81.4423 84.8511   2
  -5  -3  36 30.1757 67.0750   2
  -5  -3  35 142.749 83.2494   2
  -5  -3  34 61.9429 86.7375   2
  -5  -3  32 521.029 86.5523   2
  -5  -3  30 12.8852 97.0928   2
  -5  -3  28 275.608 99.7718   2
  -5  -3  26 4391.16 123.641   2
   5   3 -25 132.759 131.562   2
  -5  -3  24 948.696 118.463   2
  -5  -3  23 220.555 115.104   2
   5   3 -21 622.925 119.554   2
   5   3 -19 1418.40 115.650   2
  -5   3  17 4594.23 129.946   2
   5  -3 -15 1001.86 110.243   2
   5  -3 -13 427.714 108.786   2
  -5  -3  12 635.602 143.048   2
  -5  -3  11 2668.78 117.422   2
  -5  -3  10 4526.92 101.127   2
   5   3  -8 65.2158 81.1257   2
   5   3  -6 23710.8 137.583   2
  -5   3   4 4195.00 95.6026   2
  -5   3   2 38166.6 149.784   2
  -5  -3   1 84435.7 323.842   2
  -5   3   0 273.226 57.2383   2
  -5   3  -1 32689.4 129.930   2
  -5   3  -2 30883.5 107.903   2
  -5   3  -3 26214.9 95.1180   2
   5  -3   4 20169.5 242.884   2
  -5   3  -5 36195.3 231.175   2
  -5   3  -7 6448.21 104.998   2
   5  -3   9 165.182 88.0707   2
   5  -3  11 906.238 108.714   2
  -5   3 -13 28231.9 232.961   2
   5  -3  14 198.675 108.418   2
  -5   3 -16 848.475 157.558   2
  -5   3 -18 3317.44 81.4596   2
   5  -3  20 299.149 71.4427   2
  -5   3 -22 693.004 79.5695   2
  -5   3 -24 253.822 85.5851   2
   5   3  26 176.868 151.086   2
   5  -3  27 51.4816 96.6436   2
   5  -3  29 14.1483 88.3691   2
   5   3  31 166.099 78.4913   2
   5  -3  33-3.59549 97.0381   2
   5  -3  35 41.8602 93.6157   2
  -5  -5  35 162.402 98.8449   2
  -5  -5  34 92.2534 101.624   2
  -5  -5  32 119.826 77.9180   2
  -5  -5  30 348.982 92.2214   2
  -5  -5  28 895.622 99.1830   2
  -5  -5  26 469.005 122.058   2
  -5  -5  25 1033.29 198.620   2
  -5  -5  24 947.648 109.543   2
  -5  -5  23-29.0185 143.310   2
   5   5 -21 2582.29 157.312   2
   5   5 -19 10838.0 159.142   2
   5   5 -17 738.439 124.455   2
  -5   5  15 1708.98 126.049   2
  -5  -5  13 11267.4 173.379   2
  -5  -5  11 4295.71 238.019   2
  -5   5  10 1504.47 141.737   2
  -5  -5   8 272.938 126.143   2
  -5   5   6 845.175 117.404   2
  -5   5   4 36447.9 259.631   2
  -5   5   2 4061.41 79.6968   2
   5  -5   0 71.3087 70.1707   2
  -5   5  -1 7956.39 106.353   2
   5  -5   2 3301.32 91.7412   2
   5  -5   3 7163.23 219.725   2
   5  -5   5 2490.59 182.069   2
  -5  -5  -7 1172.00 99.4956   2
  -5  -5  -9 15103.7 169.892   2
  -5   5 -11 4178.88 179.582   2
  -5   5 -13 38454.8 277.846   2
   5  -5  14 345.948 120.630   2
   5  -5  16 471.758 103.675   2
   5  -5  18 1844.25 85.3111   2
  -5   5 -20 2582.77 92.5159   2
   5  -5  22 405.050 91.3287   2
   5  -5  24 341.156 106.906   2
   5   5  26 867.380 144.990   2
   5  -5  27 84.4636 106.530   2
   5  -5  29 461.251 122.021   2
   5  -5  31 1658.27 113.287   2
   5  -5  33 17.2547 85.0755   2
  -5  -7  32 5.82830 79.1628   2
  -5  -7  30 16.8721 96.5919   2
  -5  -7  28 24.0482 112.125   2
  -5  -7  26 597.556 117.934   2
  -5  -7  25 168.768 193.064   2
  -5  -7  24 358.964 148.203   2
  -5  -7  23 411.566 175.283   2
  -5  -7  21 850.896 189.253   2
  -5  -7  19 192.364 173.852   2
  -5  -7  17 895.841 128.841   2
  -5  -7  15 6333.23 155.171   2
  -5   7  13 14013.9 252.856   2
  -5  -7  11 5702.16 262.076   2
  -5   7  10 12935.3 229.902   2
  -5   7   8 2071.71 156.209   2
  -5   7   6 12975.8 219.187   2
  -5   7   4 4264.14 130.803   2
   5  -7  -2 46253.0 329.715   2
   5  -7   0 6653.95 157.030   2
  -5  -7  -1 7709.50 192.596   2
  -5  -7  -2 155.938 113.027   2
   5  -7   3 15809.4 184.286   2
   5  -7   5 7923.63 257.979   2
   5  -7   7 257.388 126.271   2
   5  -7   9 1719.55 202.539   2
   5  -7  11 210.880 199.160   2
   5  -7  13 118.420 107.635   2
   5  -7  14 2892.79 127.256   2
   5  -7  16 3310.76 94.0532   2
   5  -7  18 4724.05 100.881   2
   5  -7  20 237.972 91.6390   2
   5  -7  22 507.871 117.084   2
   5  -7  24 100.392 117.337   2
   5  -7  26 359.639 204.936   2
   5  -7  27 681.183 122.011   2
   5  -7  29 379.160 106.007   2
   5  -7  31 4.63328 89.8650   2
   5  -7  33 46.1841 102.389   2
  -5  -9  32-79.7127 103.406   2
  -5  -9  30 8.47801 111.818   2
  -5  -9  28 211.146 135.903   2
  -5  -9  26 7.28013 152.033   2
  -5  -9  25 291.354 199.035   2
  -5  -9  24 791.955 304.844   2
  -5  -9  23 3498.88 331.256   2
  -5  -9  21 5679.97 339.838   2
  -5  -9  19 208.026 191.884   2
  -5  -9  17 46.4158 174.537   2
  -5  -9  15 8297.43 213.842   2
  -5  -9  13 6158.43 188.943   2
  -5  -9  10-3.04797 140.471   2
  -5  -9   8 189.386 141.443   2
   5  -9  -6 339.373 129.823   2
   5  -9  -4 1850.34 151.571   2
   5  -9  -2 2591.79 149.712   2
   5  -9   0 11464.6 217.004   2
   5  -9   3 4486.35 153.972   2
   5  -9   5 1993.67 162.684   2
   5  -9   7 182.992 218.329   2
   5  -9   9 8642.81 308.507   2
   5  -9  11 4781.07 176.432   2
   5  -9  13 2051.58 157.553   2
   5  -9  14 236.326 120.595   2
   5  -9  16 1063.09 142.503   2
   5  -9  18 509.790 155.571   2
   5  -9  20 2200.55 172.198   2
   5  -9  22 1106.29 213.041   2
   5  -9  24 576.368 198.712   2
   5  -9  26 400.374 181.516   2
   5  -9  27 292.659 165.716   2
   5  -9  29 1352.97 154.501   2
   5  -9  31 139.813 105.280   2
  -5 -11  28 238.143 127.205   2
  -5 -11  26 1094.43 128.806   2
  -5 -11  24 384.854 145.235   2
  -5 -11  23 762.323 258.601   2
  -5 -11  21 891.963 261.003   2
  -5 -11  19 10002.3 315.975   2
  -5 -11  17 704.328 243.067   2
  -5 -11  10 5507.58 317.871   2
  -5 -11   8 513.197 235.352   2
   5 -11  -6 10695.9 252.926   2
   5 -11  -4 1132.51 164.548   2
   5 -11  -2 9942.14 240.941   2
   5 -11   0 5509.01 311.062   2
   5 -11   3 14841.1 301.136   2
   5 -11   5 6035.48 322.550   2
   5 -11   7 304.397 249.227   2
   5 -11   9 20.8649 241.199   2
   5 -11  11 12969.4 415.879   2
   5 -11  16 199.141 190.812   2
   5 -11  18 6481.35 245.422   2
   5 -11  20 650.090 181.733   2
   5 -11  22-73.5296 179.599   2
   5 -11  24-14.7489 159.485   2
   5 -11  26 102.630 134.905   2
   5 -11  27-66.0053 124.768   2
  -5 -13  26-15.9610 98.1893   2
  -5 -13  25 10.6866 111.816   2
  -5 -13  24 10.5091 121.452   2
  -5 -13  23 164.880 134.961   2
   5 -13  13 479.937 168.155   2
   5 -13  14 20.9648 158.313   2
   5 -13  16 94.3999 156.418   2
   5 -13  18-80.9036 159.463   2
   5 -13  20 569.440 144.351   2
   5 -13  22 1373.49 136.094   2
  -5 -15  19 838.314 120.397   2
  -6   0  36 153.355 118.019   2
  -6   0  26 673.296 267.255   2
  -6   0  24 1475.46 257.504   2
  -6   0  22-5.25054 142.728   2
  -6   0  20 6639.28 286.281   2
  -6   0  18 1920.08 209.715   2
  -6   0  16 2708.71 204.341   2
  -6   0  14 3072.82 213.322   2
  -6   0  12 3691.79 196.712   2
  -6   0   2 19139.0 264.460   2
   6   0   0 551.445 85.5889   2
  -6   0  -2 56999.7 196.718   2
  -6   0  -4 50355.5 94.6144   2
   6   0   6 104445. 244.562   2
   6   0   8 6005.76 157.489   2
   6   0  10 47666.6 378.315   2
   6   0  12 51059.4 434.356   2
   6   0  26 2254.63 161.454   2
   6   0  28 46.2823 137.163   2
   6   0  30 1635.57 136.948   2
   6   0  32 47.1168 107.839   2
   6   0  34 126.621 80.6302   2
  -6  -2  37-17.5418 92.1231   2
  -6  -2  36-46.8273 77.6957   2
  -6  -2  35 153.536 90.5850   2
  -6  -2  33 458.678 104.212   2
  -6  -2  31-39.2264 113.715   2
  -6  -2  29 2503.55 110.640   2
  -6  -2  27 3531.68 156.410   2
   6   2 -26 415.210 115.373   2
  -6  -2  25 113.838 102.335   2
  -6  -2  24 14.8710 109.729   2
  -6  -2  22 640.755 97.9883   2
  -6  -2  20 3181.34 137.588   2
  -6  -2  18 861.673 121.579   2
   6  -2 -16 2247.22 131.369   2
  -6  -2  14 252.910 153.563   2
  -6  -2  13 49838.4 495.806   2
  -6  -2  12 345.516 140.872   2
  -6  -2  11 1908.07 137.980   2
   6  -2  -9 12760.9 144.871   2
  -6  -2   7 25244.2 158.865   2
   6   2  -5 4795.85 68.3962   2
  -6   2   3 55868.9 260.034   2
  -6   2   2 5139.11 159.224   2
  -6  -2   1 9189.38 147.094   2
  -6  -2   0 627.647 79.1263   2
  -6   2  -1 120390. 325.726   2
  -6   2  -2 27600.5 164.266   2
   6   2   3 114309. 203.388   2
  -6   2  -4 141591. 266.545   2
   6  -2   6 199057. 373.251   2
  -6   2  -8 8460.55 95.9694   2
  -6   2 -10 46161.2 199.666   2
  -6   2 -12 13872.7 142.474   2
  -6   2 -15 925.100 127.901   2
  -6   2 -17 4643.35 154.026   2
  -6   2 -19 975.201 62.3211   2
  -6   2 -21 1875.39 81.7696   2
  -6   2 -23 6172.34 98.6352   2
   6   2  25 1362.81 167.316   2
   6   2  26 1091.12 106.585   2
   6  -2  28 66.8606 95.0944   2
   6   2  30 68.0606 85.3113   2
   6  -2  32 940.178 75.6245   2
   6  -2  34 222.747 85.4409   2
  -6  -4  36 91.5636 94.9508   2
  -6  -4  35 61.6488 117.240   2
  -6  -4  33 59.0765 74.5653   2
  -6  -4  31 47.3340 90.4586   2
  -6  -4  29 151.581 98.5702   2
  -6  -4  27 687.881 119.840   2
  -6  -4  26 182.019 176.898   2
  -6  -4  25 86.5651 103.233   2
  -6  -4  24 542.332 143.215   2
   6   4 -22 1436.35 151.275   2
   6   4 -20 348.611 107.764   2
  -6   4  18 14183.5 163.549   2
  -6   4  16 13831.2 189.421   2
  -6   4  14 1523.21 110.535   2
  -6  -4  13 378.365 192.586   2
  -6  -4  12 7414.54 182.532   2
  -6   4  11 2380.33 106.623   2
   6   4  -9 415.402 95.7795   2
  -6   4   7 21197.1 173.278   2
  -6   4   5 890.710 102.331   2
  -6   4   3 5781.38 95.2491   2
  -6   4   2 1285.60 119.054   2
  -6   4   1 25666.1 175.839   2
  -6   4   0 45105.5 210.836   2
  -6   4  -1 3794.70 81.6301   2
   6  -4   2 413.277 52.0171   2
  -6   4  -3 6368.46 79.7707   2
  -6  -4  -4 39571.8 146.505   2
  -6  -4  -6 3410.88 124.951   2
  -6   4  -8 4017.05 118.426   2
   6  -4  10 19134.2 188.010   2
  -6   4 -12 3938.42 129.878   2
   6  -4  13 457.502 114.602   2
   6  -4  15 892.488 118.218   2
   6  -4  17 646.937 73.0843   2
   6  -4  19 0.47074 78.2124   2
   6  -4  21 105.310 75.4117   2
  -6   4 -23 753.020 88.6759   2
   6   4  25 240.153 149.551   2
   6  -4  26 7532.95 119.554   2
   6   4  28 2644.07 95.3217   2
   6  -4  30 1143.70 99.9328   2
   6  -4  32 268.302 100.758   2
   6  -4  34 36.6006 78.1539   2
  -6  -6  33 31.4926 79.8946   2
  -6  -6  31 84.8985 97.5696   2
  -6  -6  29 1398.15 118.122   2
  -6  -6  27 521.660 95.4980   2
  -6  -6  26 59.0558 184.150   2
  -6  -6  25 190.543 119.041   2
  -6  -6  24 760.692 154.026   2
  -6  -6  22 86.9128 122.547   2
  -6  -6  20 387.681 120.375   2
  -6   6  18 11005.0 183.168   2
  -6  -6  16 9380.38 166.125   2
  -6  -6  14 6048.87 197.714   2
  -6   6  11 9457.93 217.929   2
  -6  -6   9 142.993 146.699   2
  -6   6   7 15828.7 224.918   2
  -6   6   5 9356.97 184.681   2
  -6   6   3 23313.0 236.872   2
   6  -6  -1 1258.03 96.2664   2
   6  -6   0 136.892 180.369   2
  -6  -6  -1 40908.4 315.700   2
   6  -6   2 45002.1 260.123   2
   6  -6   4 109.663 77.1461   2
   6  -6   6 107.611 176.493   2
   6  -6   8 6853.60 178.741   2
   6  -6  10 2081.10 203.638   2
   6  -6  12 191.516 128.798   2
   6  -6  13 279.624 129.565   2
   6  -6  15 135.156 74.6685   2
   6  -6  17 854.500 82.6459   2
   6  -6  19 406.929 89.0259   2
   6  -6  21 52.3034 101.846   2
   6  -6  23 6050.79 124.779   2
   6   6  25 217.612 145.271   2
   6  -6  26 2336.78 117.212   2
   6  -6  28 797.603 121.630   2
   6  -6  30 19.8833 103.193   2
   6  -6  32 930.431 88.9499   2
  -6  -8  33 138.317 101.370   2
  -6  -8  31 414.398 114.918   2
  -6  -8  29 18.7618 138.829   2
  -6  -8  27 84.2275 151.246   2
  -6  -8  26 75.1814 195.098   2
  -6  -8  25 1505.72 313.633   2
  -6  -8  24 211.856 302.241   2
  -6  -8  22 346.597 275.180   2
  -6  -8  20 127.432 186.578   2
  -6  -8  18 1095.88 182.630   2
  -6  -8  16 179.589 132.851   2
  -6  -8  14 97.6045 125.469   2
  -6  -8  12 630.352 205.685   2
  -6  -8  11 860.692 159.649   2
  -6   8   9 8862.05 224.321   2
  -6   8   7 2290.80 130.593   2
   6  -8  -5 17811.7 252.182   2
   6  -8  -3 533.185 128.750   2
   6  -8  -1 65566.5 420.214   2
  -6  -8   0 152.431 144.201   2
   6  -8   2 22204.2 242.075   2
   6  -8   4 22311.9 400.948   2
   6  -8   6 33674.4 343.724   2
   6  -8   8 1353.16 156.587   2
   6  -8  10 2362.39 252.522   2
   6  -8  12 12973.5 199.535   2
   6  -8  13 3815.90 139.950   2
   6  -8  15 3088.58 139.353   2
   6  -8  17 700.644 86.9427   2
   6  -8  19 396.630 112.327   2
   6  -8  21 202.104 112.865   2
   6  -8  23 693.120 126.612   2
   6  -8  25 610.508 198.357   2
   6  -8  26 1704.32 125.242   2
   6  -8  28 31.3477 102.617   2
   6  -8  30 227.619 89.5834   2
  -6 -10  31 27.1059 100.958   2
  -6 -10  29 159.807 106.848   2
  -6 -10  27-1.27950 125.926   2
  -6 -10  26 130.536 168.701   2
  -6 -10  25 872.313 152.753   2
  -6 -10  24 937.410 293.152   2
  -6 -10  22 203.756 280.141   2
  -6 -10  20 2632.47 300.584   2
  -6 -10  18 722.637 262.106   2
  -6 -10  16 1074.29 179.162   2
  -6 -10  14 443.280 164.116   2
  -6 -10  11 1446.38 254.077   2
   6 -10  -9 5651.25 212.540   2
  -6 -10   7 1285.72 156.031   2
   6 -10  -5 1139.11 151.502   2
   6 -10  -3 240.746 141.501   2
   6 -10  -1 7623.73 216.181   2
   6 -10   2 4046.68 279.194   2
   6 -10   4 9415.13 246.853   2
   6 -10   6 4625.52 199.825   2
   6 -10   8 814.156 223.776   2
   6 -10  10 1243.61 234.098   2
   6 -10  12 3447.67 295.080   2
   6 -10  13 5998.27 225.975   2
   6 -10  17 1352.00 201.383   2
   6 -10  19 199.726 186.347   2
   6 -10  21 746.291 203.686   2
   6 -10  23 1954.93 198.312   2
   6 -10  25 477.209 175.656   2
   6 -10  26 690.179 167.186   2
   6 -10  28 72.2599 127.046   2
  -6 -12  27 137.022 115.912   2
  -6 -12  26 43.4310 122.597   2
  -6 -12  25 55.3539 137.668   2
  -6 -12  24 83.0514 146.614   2
  -6 -12  22 335.359 223.927   2
  -6 -12   7 15260.4 458.039   2
   6 -12  -3 796.532 306.651   2
   6 -12  -1 16556.8 324.175   2
   6 -12   2 22.8651 239.879   2
   6 -12   4 843.725 267.383   2
   6 -12   6 2437.30 288.853   2
   6 -12  13 840.398 178.476   2
   6 -12  15 162.000 182.237   2
   6 -12  17-12.3687 170.333   2
   6 -12  19 328.182 161.196   2
   6 -12  21 6.65729 163.130   2
   6 -12  23 2385.55 161.449   2
   6 -12  25 131.958 116.203   2
  -6 -14  22 33.4716 120.862   2
  -7  -1  37 121.282 68.0638   2
  -7  -1  36 7.63680 82.4188   2
  -7  -1  34 148.262 112.778   2
  -7  -1  32-3.77497 109.950   2
  -7  -1  30 26.2339 123.347   2
  -7  -1  28 295.479 254.328   2
   7   1 -26 375.381 133.306   2
   7   1 -25 4193.85 156.945   2
  -7   1  23 2517.28 118.066   2
  -7  -1  21 1656.32 137.977   2
  -7  -1  19 1497.61 157.789   2
  -7  -1  17 4615.01 169.622   2
  -7  -1  15 11783.8 204.762   2
  -7  -1  14 6687.39 241.905   2
  -7  -1  13 10042.6 193.873   2
  -7  -1  12 5809.83 166.631   2
  -7  -1  10 26580.5 220.934   2
  -7  -1   8 3362.79 128.505   2
  -7  -1   6 118197. 343.447   2
   7  -1  -4 131123. 265.688   2
   7  -1  -2 72308.0 256.971   2
   7  -1  -1 18519.3 147.679   2
  -7  -1   0 49489.9 147.690   2
   7   1   1 1188.06 52.8837   2
  -7   1  -2 72087.1 234.096   2
  -7   1  -3 67097.6 135.420   2
   7   1   4 43773.8 141.129   2
  -7   1  -5 10299.7 96.6694   2
  -7   1  -7 12783.7 81.4641   2
  -7   1  -9 1334.37 73.6302   2
  -7   1 -11 2466.14 114.820   2
   7   1  12 11219.1 264.299   2
   7   1  13 13391.2 291.460   2
  -7   1 -14 23968.3 222.538   2
  -7   1 -16 16696.3 207.473   2
  -7   1 -18 2252.16 70.6789   2
  -7   1 -20 2306.43 69.2904   2
  -7   1 -22 360.365 78.6648   2
  -7   1 -24 1097.00 142.894   2
   7  -1  25 4.68981 101.863   2
   7  -1  27 50.9449 99.8887   2
   7   1  29 40.6534 90.9643   2
   7   1  31 612.516 83.8706   2
   7   1  33 1916.40 70.8865   2
   7  -1  35 2440.32 101.452   2
  -7  -3  37 42.5771 84.9815   2
  -7  -3  36 29.0249 69.3141   2
  -7  -3  34 309.410 89.2607   2
  -7  -3  32 6.15653 104.302   2
  -7  -3  30 97.9899 94.9472   2
  -7  -3  28 20.9381 112.749   2
  -7  -3  27 285.254 174.539   2
  -7  -3  26 701.715 126.672   2
  -7  -3  25 532.452 123.573   2
   7   3 -24 229.843 296.991   2
  -7  -3  23 720.592 101.901   2
   7   3 -21 343.370 119.135   2
   7   3 -19 379.691 100.320   2
   7   3 -17 5488.61 135.564   2
   7  -3 -15-37.8430 108.135   2
   7   3 -14 10423.8 216.253   2
  -7  -3  13 275.774 116.601   2
  -7  -3  12 4362.87 118.414   2
  -7  -3  10 1132.15 87.5903   2
   7   3  -8 7639.99 126.589   2
   7  -3  -6-45.0409 160.653   2
  -7   3   4 2282.47 121.481   2
  -7   3   3 29741.1 212.226   2
  -7   3   2 10836.4 117.705   2
  -7   3   1 1527.99 139.897   2
  -7   3   0 68039.5 304.814   2
  -7  -3  -1 126.798 92.7177   2
  -7   3  -2 25573.3 243.300   2
  -7   3  -3 2819.01 84.3787   2
  -7   3  -5 2402.85 93.9766   2
  -7   3  -7 177.548 74.3758   2
   7  -3   9 26557.4 162.976   2
  -7   3 -11 9115.08 146.002   2
   7  -3  13 5883.99 212.400   2
  -7   3 -14 6747.91 147.269   2
  -7   3 -16 2522.32 166.883   2
   7  -3  18 535.362 66.8752   2
  -7   3 -20 577.653 73.0444   2
  -7   3 -22 147.996 85.8525   2
   7   3  24 227.083 159.795   2
   7  -3  25 708.274 100.136   2
   7  -3  27 257.681 94.8905   2
   7   3  29 112.191 83.0743   2
   7   3  31 399.217 73.7806   2
   7  -3  33 335.074 94.3569   2
  -7  -5  34-19.8188 99.9416   2
  -7  -5  32 17.5390 76.7897   2
  -7  -5  30-50.7156 88.4900   2
  -7  -5  28 221.989 95.0531   2
  -7  -5  27 280.010 179.457   2
  -7  -5  26 1155.63 125.162   2
  -7  -5  25 791.339 162.132   2
  -7  -5  23 257.973 176.656   2
  -7  -5  21 803.679 174.853   2
  -7   5  19 5738.37 156.634   2
  -7   5  17 7208.71 137.662   2
  -7   5  15 5010.98 126.685   2
  -7  -5  14 4131.80 230.678   2
  -7  -5  13 2132.11 153.169   2
  -7  -5  12 7601.96 152.038   2
  -7   5  10 142.127 215.827   2
  -7  -5   8 434.841 124.803   2
  -7   5   6 11077.3 181.755   2
  -7   5   4 9529.58 171.865   2
  -7   5   2 21796.8 153.403   2
  -7  -5   1 1538.90 119.519   2
  -7   5   0 3949.75 108.192   2
  -7   5  -1 2014.50 81.3090   2
   7  -5   3 5972.21 97.9561   2
  -7  -5  -5 3310.71 141.784   2
  -7  -5  -7 35025.8 280.450   2
  -7  -5  -9 8487.29 143.720   2
   7  -5  11 6388.96 140.044   2
   7  -5  12 64.2777 110.228   2
   7  -5  14 668.457 118.790   2
   7  -5  16 5292.91 81.4602   2
  -7   5 -18 7881.67 104.594   2
   7  -5  20 201.441 89.2758   2
   7  -5  22 128.971 105.007   2
   7   5  24 193.789 156.567   2
   7  -5  25 349.440 117.354   2
   7  -5  27 251.018 108.645   2
   7  -5  29 198.556 96.7893   2
   7  -5  31 359.202 101.675   2
   7  -5  33 485.343 83.7134   2
  -7  -7  32 142.879 116.137   2
  -7  -7  30 31.6560 96.2997   2
  -7  -7  28 576.357 112.076   2
  -7  -7  27 326.663 197.468   2
  -7  -7  26 245.392 115.795   2
  -7  -7  25 267.730 147.683   2
  -7  -7  23 432.241 150.880   2
  -7  -7  21 1448.08 195.590   2
  -7  -7  19-37.9970 135.695   2
  -7  -7  17 3046.59 154.028   2
  -7  -7  15 4828.08 152.998   2
  -7   7  12 9857.20 335.264   2
  -7   7  10 1964.39 163.829   2
  -7   7   8 1342.65 151.333   2
  -7   7   6 27342.9 294.469   2
  -7   7   4 6667.89 183.016   2
   7  -7  -2 119.029 103.425   2
  -7  -7   1 3737.46 173.835   2
   7  -7   1 2010.16 123.055   2
   7  -7   3 3265.88 116.147   2
   7  -7   5 20.7119 196.124   2
   7  -7   7 16219.8 241.317   2
   7  -7   9 171.688 143.318   2
   7  -7  11 1185.80 215.721   2
   7  -7  12 5456.07 141.694   2
   7  -7  14 4264.80 94.4694   2
   7  -7  16 9306.40 103.669   2
   7  -7  18 105.304 89.1648   2
   7  -7  20 1721.32 107.044   2
   7  -7  22 553.540 116.382   2
   7   7  24 310.500 154.602   2
   7  -7  25 764.515 130.886   2
   7  -7  27 67.9413 115.826   2
   7  -7  29 708.747 105.287   2
   7  -7  31 1701.37 91.4782   2
  -7  -9  32 158.137 101.828   2
  -7  -9  30 355.761 113.412   2
  -7  -9  28 406.128 132.873   2
  -7  -9  27 531.378 180.612   2
  -7  -9  26 629.107 156.054   2
  -7  -9  25 3517.12 291.962   2
  -7  -9  23 742.742 308.048   2
  -7  -9  21 57.0455 272.767   2
  -7  -9  19 6797.75 305.435   2
  -7  -9  17 8923.79 236.798   2
  -7  -9  15 1923.68 177.385   2
   7  -9 -12 6884.57 329.573   2
   7  -9 -10 4660.16 193.382   2
  -7  -9   8 165.095 140.112   2
   7  -9  -6 4905.78 186.739   2
   7  -9  -4 4466.68 181.457   2
   7  -9  -2 8367.42 204.762   2
   7  -9   1 5060.14 289.983   2
   7  -9   3 312.854 205.786   2
   7  -9   5 5377.54 206.444   2
   7  -9   7 6162.01 198.380   2
   7  -9   9 8367.07 331.397   2
   7  -9  11 560.731 246.610   2
   7  -9  12 2759.09 273.293   2
   7  -9  14 2549.15 190.280   2
   7  -9  16 565.422 157.799   2
   7  -9  18 1480.17 202.009   2
   7  -9  20 1766.75 227.160   2
   7  -9  22 280.740 121.278   2
   7  -9  24 113.740 195.510   2
   7  -9  25 294.638 180.098   2
   7  -9  27 1217.42 174.177   2
   7  -9  29 35.5463 135.618   2
  -7 -11  28 983.303 121.927   2
  -7 -11  27-14.9374 133.295   2
  -7 -11  26 122.968 120.530   2
  -7 -11  25 112.368 129.395   2
  -7 -11  23-71.4079 243.254   2
  -7 -11  21 1982.62 269.458   2
  -7 -11  19 659.249 266.825   2
  -7 -11  17 1554.55 254.563   2
  -7 -11   8 555.947 176.280   2
   7 -11  -6 8422.38 244.352   2
  -7 -11   4 1209.30 172.721   2
   7 -11  -2 5942.64 325.425   2
   7 -11   1 3234.29 293.984   2
   7 -11   3 322.510 178.297   2
   7 -11   5 799.810 270.952   2
   7 -11   7 10228.2 377.551   2
   7 -11   9 7789.38 359.303   2
   7 -11  14 22.4927 174.762   2
   7 -11  16 3015.07 210.010   2
   7 -11  18 123.567 181.623   2
   7 -11  20 846.380 195.951   2
   7 -11  22 1352.98 183.677   2
   7 -11  24-62.5643 145.585   2
   7 -11  25 48.4063 138.044   2
  -7 -13  26 9.21625 94.3937   2
  -7 -13  25 81.3149 110.014   2
  -7 -13  23 239.365 138.524   2
   7 -13  18 607.768 150.040   2
   7 -13  20 704.826 133.138   2
  -7 -15  19 492.214 116.131   2
  -8   0  26 2054.74 182.377   2
  -8   0  24 554.051 157.995   2
  -8   0  22 9560.25 198.994   2
  -8   0  20 180.732 215.452   2
  -8   0  18 4426.68 240.726   2
  -8   0  16 12774.4 281.426   2
  -8   0  14 78232.3 564.750   2
  -8   0   2 78753.4 537.844   2
   8   0   0 7769.77 136.196   2
  -8   0  -2 10469.2 115.738   2
  -8   0  -4 33273.3 107.339   2
  -8   0  -6 15480.5 79.0437   2
   8   0   8 44119.4 287.435   2
   8   0  10 58445.7 390.653   2
  -8   0 -24 4064.27 155.530   2
   8   0  26 675.633 144.698   2
   8   0  28 497.169 138.979   2
   8   0  30 150.907 124.060   2
   8   0  32 1515.43 107.380   2
   8   0  34 627.752 77.3079   2
  -8  -2  37 47.4985 95.3958   2
  -8  -2  35 15.3003 92.0090   2
  -8  -2  33 326.426 101.201   2
  -8  -2  31 1278.01 120.646   2
  -8  -2  29 632.378 158.960   2
  -8  -2  27 422.837 135.329   2
  -8  -2  26 267.242 103.629   2
   8   2 -25 95.7926 314.298   2
  -8  -2  24 27.8521 94.7399   2
  -8  -2  22 2526.71 109.671   2
  -8  -2  20 426.614 107.189   2
  -8  -2  18 128.798 111.961   2
   8  -2 -16 6154.06 150.098   2
   8  -2 -15 1110.40 157.456   2
  -8  -2  14 314.644 122.957   2
   8  -2 -13 10328.5 165.289   2
   8  -2 -11 5384.66 136.088   2
   8  -2  -9 53199.6 249.674   2
  -8  -2   7 10079.8 125.238   2
   8  -2  -5 1318.54 179.125   2
  -8   2   3 25221.4 217.798   2
  -8   2   2 16298.8 180.495   2
  -8  -2   1 195.313 95.3166   2
  -8  -2   0 60090.6 146.793   2
  -8   2  -1 112.679 92.8498   2
  -8   2  -2 57991.7 253.399   2
  -8   2  -4 43434.0 132.977   2
   8  -2   6 1127.11 75.5310   2
  -8   2  -8 33475.2 158.758   2
  -8   2 -10 5200.74 117.267   2
  -8   2 -13 7921.61 193.381   2
  -8   2 -15 220.400 142.188   2
  -8   2 -17 121.026 65.4016   2
  -8   2 -19 9311.86 86.5668   2
  -8   2 -21 9359.06 101.307   2
  -8   2 -23 2588.86 156.354   2
   8  -2  24 1553.74 110.595   2
   8  -2  26 72.9913 101.293   2
   8   2  28 86.4170 93.8549   2
   8   2  30 95.6110 82.2596   2
   8   2  32 212.940 67.5409   2
   8  -2  34 254.581 78.6956   2
  -8  -4  35 35.5955 95.5004   2
  -8  -4  33 276.459 92.0893   2
  -8  -4  31 10.4936 85.0864   2
  -8  -4  29 80.7422 111.566   2
  -8  -4  28 435.831 162.440   2
  -8  -4  27 241.996 115.121   2
  -8  -4  26 239.136 266.978   2
  -8  -4  24 152.865 118.838   2
  -8  -4  22 1604.97 178.084   2
  -8  -4  20 148.289 123.316   2
   8   4 -18 597.977 103.716   2
   8  -4 -16 538.607 103.772   2
   8   4 -15 68.1997 137.486   2
   8   4 -14 38259.1 311.244   2
  -8   4  13 4138.63 124.925   2
  -8  -4  11 2949.39 109.394   2
  -8   4   9 17528.1 240.698   2
  -8   4   7 11122.3 205.112   2
  -8   4   5 5580.14 153.955   2
  -8   4   3 3962.00 101.123   2
  -8   4   2 16596.2 167.475   2
  -8   4   1 937.730 92.9844   2
  -8   4   0 5962.56 107.995   2
  -8   4  -2 10236.3 133.224   2
  -8  -4  -4 26421.0 178.543   2
  -8  -4  -6 14830.2 195.321   2
  -8   4  -8 70232.0 271.388   2
   8  -4  10 669.492 102.301   2
   8  -4  12 16655.7 298.084   2
  -8   4 -13 1669.13 117.788   2
  -8   4 -15 3942.36 136.539   2
  -8   4 -17 4476.61 83.3431   2
  -8   4 -19 269.693 90.5355   2
  -8   4 -21 275.387 84.1536   2
   8   4  23 376.127 161.163   2
   8   4  24 8607.21 120.943   2
   8   4  26 2055.30 100.810   2
   8   4  28 142.649 84.7273   2
   8  -4  30 2129.14 101.550   2
   8  -4  32 2076.50 108.491   2
   8  -4  34 386.781 91.7078   2
  -8  -6  33 67.5267 100.139   2
  -8  -6  31 1235.80 101.772   2
  -8  -6  29 506.511 90.4351   2
  -8  -6  28 304.303 176.843   2
  -8  -6  27 13.2523 117.119   2
  -8  -6  26 67.1691 118.151   2
  -8  -6  24 22.4071 150.875   2
  -8  -6  22 101.149 121.145   2
  -8   6  20 4905.42 169.101   2
  -8   6  18 1895.89 139.861   2
  -8   6  16 14659.3 191.364   2
  -8  -6  15 114.045 213.681   2
  -8  -6  14 19768.3 374.410   2
  -8  -6  13 1973.72 170.652   2
  -8   6  11 5857.41 301.526   2
  -8   6   9 6827.37 304.674   2
  -8   6   7 36901.5 312.937   2
  -8   6   5 2902.95 156.125   2
  -8  -6   3 91.6333 122.541   2
  -8   6   2 1570.13 154.340   2
  -8   6   1 6679.60 133.495   2
  -8   6   0 62708.4 283.383   2
   8  -6   2 2661.18 106.031   2
   8  -6   4-4.06345 181.880   2
   8  -6   6 22159.1 369.746   2
   8  -6   8 486.052 134.777   2
   8  -6  10 3920.41 158.197   2
   8  -6  11 11409.0 211.234   2
   8  -6  13 4225.34 90.2702   2
   8  -6  15 7722.33 91.9233   2
   8  -6  17 1712.46 81.9704   2
   8  -6  19 1470.53 104.522   2
   8  -6  21 6897.63 128.320   2
   8   6  23 224.858 157.977   2
   8  -6  24 4728.65 134.298   2
   8  -6  26 666.085 109.302   2
   8  -6  28 34.2199 116.483   2
   8  -6  30 45.7747 101.170   2
   8  -6  32 69.4814 79.7852   2
  -8  -8  33-13.5233 167.224   2
  -8  -8  31 17.1494 106.862   2
  -8  -8  29 6.09133 131.812   2
  -8  -8  28 826.567 182.300   2
  -8  -8  27 371.073 155.145   2
  -8  -8  26-31.9562 158.435   2
  -8  -8  24 198.128 304.941   2
  -8  -8  22 727.615 300.427   2
  -8  -8  20 262.841 181.070   2
  -8  -8  18 4251.04 175.850   2
  -8  -8  16 1151.53 146.670   2
  -8  -8  15 662.112 245.279   2
  -8  -8  14 3463.28 251.622   2
  -8   8  13 5524.91 183.844   2
  -8   8  11 2358.77 295.623   2
  -8  -8   9 600.480 151.020   2
  -8  -8   7 1632.75 151.642   2
  -8  -8   5 432.284 119.644   2
   8  -8  -3 8538.15 201.489   2
   8  -8   0 22526.6 260.452   2
   8  -8   2 47458.8 594.375   2
   8  -8   4 11543.2 341.046   2
   8  -8   6 8948.82 217.519   2
   8  -8   8 30881.7 346.125   2
   8  -8  10 4737.46 282.622   2
   8  -8  11 3788.83 271.660   2
   8  -8  13 1383.49 170.037   2
   8  -8  15 1317.35 95.0076   2
   8  -8  17 5267.44 129.230   2
   8  -8  19 1054.47 130.572   2
   8  -8  21 32.7070 122.471   2
   8  -8  23 75.8244 212.755   2
   8  -8  24 2655.27 136.199   2
   8  -8  26 218.758 113.430   2
   8  -8  28-12.9609 98.8498   2
   8  -8  30 278.348 132.566   2
  -8 -10  29 108.666 104.296   2
  -8 -10  28-4.76222 134.815   2
  -8 -10  27 135.133 121.157   2
  -8 -10  26 179.406 245.582   2
  -8 -10  24 317.018 269.776   2
  -8 -10  22 3749.24 301.457   2
  -8 -10  20 3.77907 268.072   2
  -8 -10  18 332.990 275.918   2
  -8 -10  16 9486.48 237.871   2
  -8 -10  14 353.870 273.482   2
   8 -10 -11 133.897 266.112   2
   8 -10  -9 1081.82 270.381   2
   8 -10  -7 2669.17 182.877   2
  -8 -10   5 522.625 149.196   2
  -8 -10   3 244.840 148.965   2
   8 -10   0 1172.72 256.866   2
   8 -10   2 17021.3 428.617   2
   8 -10   4 4326.66 220.204   2
   8 -10   6 236.807 167.448   2
   8 -10   8 8425.23 325.838   2
   8 -10  10 3476.33 279.966   2
   8 -10  11 5687.08 321.189   2
   8 -10  13 511.036 152.697   2
   8 -10  15 2908.05 212.246   2
   8 -10  17 4693.29 221.207   2
   8 -10  19 1488.59 207.855   2
   8 -10  21 868.696 193.068   2
   8 -10  23 604.798 174.087   2
   8 -10  24 516.005 175.272   2
   8 -10  26 101.918 155.422   2
   8 -10  28 227.542 120.269   2
  -8 -12  28 351.603 94.9583   2
  -8 -12  27 130.536 105.847   2
  -8 -12  26-27.4954 117.354   2
  -8 -12  25 582.792 141.583   2
  -8 -12  24 326.948 116.665   2
  -8 -12  22-5.07337 215.841   2
   8 -12  -5 219.115 333.126   2
   8 -12  -3 8667.12 405.868   2
   8 -12   0 1687.88 203.666   2
   8 -12   2 7573.83 268.563   2
   8 -12   4 914.663 293.517   2
   8 -12  15 217.661 156.990   2
   8 -12  17 2384.91 183.017   2
   8 -12  19 85.5665 153.577   2
   8 -12  21 847.478 151.974   2
   8 -12  23 3.83063 128.472   2
  -8 -14  22 22.0484 117.142   2
  -9  -1  36-4.70907 83.8012   2
  -9  -1  34 194.966 109.301   2
  -9  -1  32 141.720 110.822   2
  -9  -1  30 162.376 233.328   2
  -9  -1  28 973.078 257.106   2
  -9  -1  27 26.8161 254.973   2
   9   1 -25 166.106 110.194   2
  -9  -1  23 41.4301 111.920   2
  -9  -1  21 8377.49 177.405   2
  -9  -1  19 386.197 151.794   2
  -9  -1  17 11859.4 209.711   2
  -9  -1  16 257.119 192.138   2
  -9  -1  15 57513.6 373.362   2
  -9  -1  14 179.279 149.827   2
  -9  -1  12 5988.75 169.157   2
  -9  -1  10 1738.37 121.902   2
  -9  -1   8 61669.1 297.214   2
   9  -1  -6 76230.9 253.732   2
   9  -1  -4 11541.6 96.2801   2
  -9  -1   3 5211.93 95.6149   2
  -9  -1   2 3708.95 81.6248   2
  -9  -1   1 3508.74 64.0905   2
  -9   1   0 2836.60 204.111   2
  -9  -1  -1 56824.3 169.905   2
  -9   1  -3 51816.2 97.5244   2
  -9   1  -5 54.7930 30.5440   2
  -9   1  -7 2223.49 60.9416   2
  -9   1  -9 273.705 66.1371   2
  -9   1 -10 1256.26 91.4199   2
   9  -1  11 4032.16 122.732   2
  -9   1 -12 12147.8 152.639   2
  -9   1 -14 6828.31 144.602   2
  -9   1 -16 2108.22 128.600   2
  -9   1 -18 24300.3 109.229   2
  -9   1 -20 10726.3 98.7930   2
  -9   1 -22 3847.58 134.874   2
  -9   1 -23 1213.28 91.4000   2
   9  -1  25 1130.69 107.389   2
   9   1  27 1170.82 103.675   2
   9   1  29 138.785 88.8504   2
   9   1  31 179.440 75.1650   2
   9   1  33 235.723 59.5179   2
   9  -1  34 586.135 75.8325   2
  -9  -3  36 811.867 75.5105   2
  -9  -3  34 77.5526 85.9390   2
  -9  -3  32 417.738 104.492   2
  -9  -3  30 1.95892 155.766   2
  -9  -3  29 302.875 158.199   2
  -9  -3  28 350.046 134.061   2
  -9  -3  27 557.616 275.908   2
  -9  -3  26 126.316 163.818   2
  -9  -3  25 108.952 112.954   2
  -9  -3  23 154.049 136.499   2
  -9   3  21 72.5567 109.827   2
   9   3 -19 945.019 99.0854   2
   9   3 -17 487.703 105.406   2
   9  -3 -16 508.382 116.997   2
   9   3 -15 2139.78 128.978   2
   9   3 -14 2407.20 113.509   2
  -9  -3  12 343.540 96.7594   2
  -9  -3  10 1263.22 83.9184   2
  -9  -3   8 15993.0 119.556   2
   9  -3  -6 4023.17 228.423   2
  -9   3   4 1883.60 137.061   2
  -9   3   3 25025.0 226.057   2
  -9   3   2 46513.4 227.004   2
  -9   3   1 1160.44 107.017   2
  -9   3  -1 9997.70 157.493   2
   9   3   3 12140.3 96.9643   2
  -9  -3  -5 160.562 108.900   2
   9  -3   7 9704.24 129.827   2
  -9   3  -9 425.786 79.3428   2
  -9   3 -12 12301.7 162.078   2
  -9   3 -14 6304.53 140.025   2
  -9   3 -16 3613.46 76.2333   2
  -9   3 -18 15731.0 103.839   2
  -9   3 -20 6746.73 94.5825   2
  -9   3 -22 582.411 139.867   2
  -9  -3 -23 1888.65 100.515   2
   9   3  25 115.680 95.4874   2
   9   3  27 101.888 90.9585   2
   9   3  29 27.2620 81.5582   2
   9  -3  31 222.723 90.0291   2
   9  -3  33 144.359 85.7056   2
   9  -3  34 880.202 97.0502   2
  -9  -5  34 10.8595 99.9629   2
  -9  -5  32 295.369 76.0571   2
  -9  -5  30 72.9029 86.9660   2
  -9  -5  29 193.138 122.672   2
  -9  -5  28 768.019 115.582   2
  -9  -5  27 208.812 158.075   2
  -9  -5  25 113.490 116.516   2
  -9  -5  23 629.364 173.994   2
  -9   5  21 6049.42 171.826   2
  -9  -5  19 62.6533 122.594   2
  -9  -5  17 381.134 121.675   2
  -9  -5  16 1225.37 207.921   2
  -9  -5  15 11109.0 299.897   2
  -9   5  14 4023.84 148.792   2
  -9  -5  12 713.176 124.764   2
  -9   5  10 40.7437 152.369   2
  -9   5   8 1476.46 232.236   2
  -9   5   6 6866.57 258.871   2
  -9   5   4 99.5466 202.958   2
  -9   5   3 29454.3 330.989   2
  -9  -5   2 413.631 114.264   2
  -9   5   1 1702.16 97.5234   2
  -9   5  -1 29730.9 259.343   2
  -9   5  -3 18428.8 214.285   2
  -9  -5  -5 20527.3 251.847   2
  -9  -5  -7 2694.74 148.906   2
  -9  -5  -9 718.456 100.700   2
   9  -5  10 1006.71 174.381   2
   9  -5  12 5727.93 160.931   2
   9  -5  14 4650.17 75.2789   2
   9  -5  16 676.595 70.2932   2
   9   5  18 3584.44 107.374   2
   9  -5  20 1387.32 118.514   2
   9   5  22 1058.14 166.938   2
   9  -5  23 2644.75 126.330   2
   9  -5  25 581.538 119.041   2
   9  -5  27 120.279 109.280   2
   9  -5  29 424.602 95.7571   2
   9  -5  31 129.631 99.4076   2
   9  -5  33-18.3464 70.9945   2
  -9  -7  34-94.8903 164.254   2
  -9  -7  32 144.153 104.818   2
  -9  -7  30 250.929 94.3455   2
  -9  -7  29 22.6885 104.099   2
  -9  -7  28-63.7963 105.004   2
  -9  -7  27 42.5779 106.727   2
  -9  -7  26 106.722 196.430   2
  -9  -7  25 938.135 306.795   2
  -9  -7  23 1011.97 285.457   2
  -9  -7  21 1566.29 188.447   2
  -9  -7  19 44.8481 150.165   2
  -9  -7  17 5995.72 174.653   2
  -9  -7  16 524.542 216.069   2
  -9  -7  15 229.506 207.466   2
  -9  -7  14 377.461 126.920   2
  -9   7  12 706.147 255.132   2
  -9   7  10 6275.09 321.483   2
  -9   7   8 20072.2 417.418   2
  -9   7   6 17885.0 251.653   2
  -9   7   4 8073.02 194.912   2
  -9  -7   3 781.016 173.759   2
  -9   7   1 10212.0 166.702   2
   9  -7   1 2654.24 240.009   2
   9  -7   3 7115.07 282.868   2
   9  -7   5 2944.98 230.316   2
   9  -7   7 634.809 134.720   2
   9  -7   9 1343.08 155.869   2
   9  -7  12 988.788 77.8488   2
   9  -7  14 3381.78 88.8440   2
   9  -7  16 623.625 94.0864   2
   9  -7  18 4906.39 129.622   2
   9  -7  20 3248.26 129.421   2
   9   7  22 387.556 163.744   2
   9  -7  23 1251.07 120.271   2
   9  -7  25 742.784 129.576   2
   9  -7  27 377.131 116.774   2
   9  -7  29 796.286 102.081   2
   9  -7  31 245.164 126.510   2
  -9  -9  32 589.361 165.485   2
  -9  -9  30 991.612 114.150   2
  -9  -9  29 109.050 140.778   2
  -9  -9  28 920.294 134.816   2
  -9  -9  27 2501.09 150.831   2
  -9  -9  26 324.834 179.423   2
  -9  -9  25-147.106 273.994   2
  -9  -9  23-25.3136 297.837   2
  -9  -9  21 9178.00 352.443   2
  -9  -9  19 210.868 282.799   2
  -9  -9  17 93.1808 176.650   2
  -9  -9  16 750.445 251.367   2
  -9  -9  15 446.924 185.288   2
  -9  -9  14 2564.18 167.373   2
  -9   9  12 2304.33 322.778   2
   9  -9 -10 836.034 202.468   2
  -9   9   8 5130.24 236.835   2
   9  -9  -6 2066.03 163.691   2
   9  -9  -4 7071.54 207.627   2
   9  -9  -1 5713.31 325.337   2
   9  -9   1 9806.75 366.430   2
   9  -9   3 7494.72 343.151   2
   9  -9   5 13383.8 388.087   2
   9  -9   7 278.686 150.581   2
   9  -9   9 468.330 222.593   2
   9  -9  10 43.8476 226.747   2
   9  -9  12 798.451 130.707   2
   9  -9  14 981.565 154.719   2
   9  -9  16 2216.59 191.403   2
   9  -9  18 170.848 210.871   2
   9  -9  20 1391.88 130.032   2
   9  -9  22 2951.77 220.436   2
   9  -9  23 3758.74 133.508   2
   9  -9  25 131.539 105.879   2
   9  -9  27 222.663 156.379   2
   9  -9  29 2.28445 115.178   2
  -9 -11  29 270.034 101.605   2
  -9 -11  28-25.3598 94.8585   2
  -9 -11  27 221.312 107.067   2
  -9 -11  26-2.61280 136.126   2
  -9 -11  25 90.1735 125.372   2
  -9 -11  23 170.330 245.477   2
  -9 -11  21 3.86675 257.581   2
  -9 -11  19 108.993 250.853   2
  -9 -11  17 492.294 255.799   2
   9 -11 -10 1168.43 425.014   2
   9 -11  -8 4142.93 374.123   2
   9 -11  -6 4602.11 353.094   2
   9 -11  -4 1385.45 285.206   2
   9 -11  -1 30.1174 278.804   2
   9 -11   1 1640.30 278.552   2
   9 -11   3 2096.95 202.392   2
   9 -11   5 22090.2 371.755   2
   9 -11   7 3177.86 287.054   2
   9 -11   9 1334.81 262.484   2
   9 -11  14 335.754 174.831   2
   9 -11  16 548.624 182.366   2
   9 -11  18 1446.74 168.508   2
   9 -11  20 2531.61 184.830   2
   9 -11  22-31.3450 156.249   2
   9 -11  23 112.779 145.978   2
   9 -11  25 633.345 130.568   2
  -9 -13  25 127.800 104.081   2
  -9 -13  23 307.507 130.268   2
 -10   0  28 107.301 238.899   2
 -10   0  26 241.704 168.348   2
 -10   0  24 3043.99 187.763   2
 -10   0  22 328.517 154.453   2
 -10   0  20 86.4307 139.640   2
 -10   0  18 11095.3 288.838   2
 -10   0  16 1954.21 193.260   2
 -10   0   4 14904.6 356.242   2
  10   0  -2 5222.63 60.8864   2
  10   0   0 9287.40 158.145   2
 -10   0  -2 34046.7 199.488   2
 -10   0  -4 33772.8 186.013   2
 -10   0  -6 77480.0 195.293   2
 -10   0  -8 23763.5 179.971   2
 -10   0 -10 3825.81 130.409   2
 -10   0 -22 319.264 112.089   2
  10   0  24 4938.52 143.443   2
  10   0  26 898.058 146.035   2
  10   0  28 177.057 129.759   2
  10   0  30 1711.48 125.611   2
  10   0  32 635.038 94.9479   2
 -10  -2  37 159.442 94.9235   2
 -10  -2  35 426.693 94.3149   2
 -10  -2  33-46.0372 100.008   2
 -10  -2  31 69.7260 147.382   2
 -10  -2  29 1083.16 266.449   2
 -10  -2  28 68.7494 267.558   2
 -10  -2  26 119.307 143.956   2
 -10  -2  24 206.959 138.299   2
 -10  -2  22 423.298 136.253   2
 -10  -2  20 75.8067 107.207   2
  10  -2 -18 3589.90 141.048   2
  10  -2 -17 1271.32 126.750   2
 -10  -2  16 158.373 115.413   2
 -10  -2  15 450.031 122.125   2
  10  -2 -13 30729.1 235.336   2
  10  -2 -11 19856.0 191.355   2
 -10  -2   9 1079.09 107.864   2
 -10  -2   7 4054.92 100.564   2
 -10  -2   5 12218.8 146.426   2
 -10   2   4 5428.64 256.159   2
 -10   2   3 299.993 204.335   2
 -10  -2   2 22095.0 196.548   2
 -10   2   1 2625.82 208.008   2
 -10  -2   0 1027.82 128.180   2
 -10  -2  -2 95.1507 50.2776   2
  10  -2   4 6820.03 65.5129   2
 -10   2  -6 22169.4 144.853   2
 -10   2  -8 136.368 66.4489   2
  10  -2   9 44396.8 239.759   2
  10  -2  10 6109.13 174.695   2
 -10   2 -11 9512.95 133.424   2
 -10   2 -13 244.706 127.641   2
 -10   2 -15 24046.4 527.556   2
 -10   2 -17 4064.00 79.8544   2
 -10   2 -19 216.241 71.9306   2
 -10   2 -21 930.012 140.839   2
 -10   2 -22 505.411 90.5324   2
  10   2  24 334.730 101.436   2
  10   2  26 804.087 101.041   2
  10   2  28 156.830 88.8159   2
  10   2  30 24.1588 76.8383   2
  10  -2  32 339.305 79.1108   2
  10  -2  33 885.358 138.340   2
 -10  -4  35 95.5566 68.7593   2
 -10  -4  33-11.7904 88.1498   2
 -10  -4  31 155.157 106.346   2
 -10  -4  30 162.849 116.596   2
 -10  -4  29 70.8355 106.849   2
 -10  -4  28 217.625 111.922   2
 -10  -4  27 53.2587 160.706   2
 -10  -4  26-11.1129 144.193   2
 -10  -4  24 258.686 174.065   2
 -10  -4  22 968.414 136.699   2
 -10  -4  20 764.312 126.095   2
  10  -4 -18 438.326 106.838   2
  10  -4 -17 628.980 148.409   2
 -10  -4  16 4704.80 186.615   2
 -10  -4  15 4981.54 157.245   2
 -10  -4  13 7074.00 196.265   2
 -10  -4  11 935.691 156.354   2
  10  -4  -9 105.652 256.561   2
 -10   4   7 943.691 162.690   2
 -10   4   5 2051.78 152.085   2
 -10   4   4 47607.5 441.384   2
 -10   4   3 2197.94 132.886   2
 -10   4   2 24303.6 229.440   2
 -10   4   1 283.073 175.410   2
 -10   4   0 8133.56 210.148   2
 -10   4  -2 7736.63 134.862   2
 -10  -4  -4 167.665 57.6609   2
 -10  -4  -6 61343.5 372.037   2
  10  -4   8 3429.57 92.2724   2
  10  -4  10 55312.6 504.699   2
 -10   4 -11 12391.1 151.329   2
 -10   4 -13 5087.54 134.593   2
 -10   4 -15 3534.68 75.0562   2
 -10   4 -17 166.930 79.6780   2
 -10   4 -19 2052.26 104.918   2
 -10   4 -21 315.842 182.539   2
  10  -4  22 5691.63 143.662   2
  10   4  24 1847.33 101.926   2
  10  -4  26 2336.18 127.258   2
  10  -4  28 2631.33 117.671   2
  10  -4  30 1898.85 98.7380   2
  10  -4  32 155.497 90.5449   2
  10  -4  33 8.51287 120.451   2
 -10  -6  35-4.67854 145.098   2
 -10  -6  33 69.1445 97.5454   2
 -10  -6  31 13.8531 91.2663   2
 -10  -6  30 13.4329 84.2085   2
 -10  -6  29 824.413 89.3822   2
 -10  -6  28 9.46849 141.861   2
 -10  -6  27 1180.37 192.709   2
 -10  -6  26 42.7022 112.948   2
 -10  -6  24 240.335 150.441   2
 -10  -6  22 364.895 173.319   2
 -10  -6  20 497.716 144.244   2
 -10  -6  18 797.513 135.954   2
 -10  -6  17 4149.28 280.807   2
 -10  -6  16 6893.95 275.302   2
 -10  -6  15 279.485 122.769   2
 -10  -6  13 10412.9 229.553   2
 -10   6  11 1235.64 253.919   2
 -10   6   9 36992.8 524.906   2
 -10   6   7 11848.3 342.349   2
 -10   6   5 9209.67 305.712   2
 -10   6   2 9012.23 182.051   2
  10  -6   0 1235.46 146.691   2
 -10   6  -2 3854.08 156.116   2
  10  -6   4 40416.7 485.888   2
  10  -6   6 3997.65 237.822   2
  10  -6   8 1156.51 133.977   2
  10  -6  11 1244.69 124.472   2
  10  -6  13 3558.06 80.9403   2
  10  -6  15 501.384 86.7961   2
  10  -6  17 121.964 103.386   2
  10  -6  19 201.688 110.583   2
  10  -6  21 1.76978 200.965   2
  10  -6  22 1623.16 119.500   2
  10  -6  24 117.574 115.205   2
  10  -6  26 2011.59 118.047   2
  10  -6  28 8.28045 115.782   2
  10  -6  30 123.544 98.3974   2
  10  -6  32 47.6472 114.693   2
 -10  -8  33 579.423 164.792   2
 -10  -8  32 352.536 106.919   2
 -10  -8  31 310.329 108.017   2
 -10  -8  30 408.440 139.247   2
 -10  -8  29 63.4090 128.894   2
 -10  -8  28 333.993 276.472   2
 -10  -8  27 115.626 165.719   2
 -10  -8  26 78.9504 289.457   2
 -10  -8  24 853.906 308.782   2
 -10  -8  22 78.1145 299.579   2
 -10  -8  20 2889.78 199.920   2
 -10  -8  18 25.2657 151.337   2
 -10  -8  17 677.397 240.426   2
 -10  -8  16 2028.46 189.348   2
 -10  -8  15 4006.59 167.810   2
 -10  -8  13 1843.58 134.251   2
 -10   8  11 142.247 253.983   2
 -10   8   9 54.8047 255.704   2
 -10   8   7 12373.6 379.137   2
  10  -8  -5 77.1724 173.788   2
 -10  -8   2 222.992 132.186   2
  10  -8   0 1448.51 252.128   2
  10  -8   2 3477.14 277.788   2
  10  -8   4 17833.0 423.948   2
  10  -8   6 38800.1 549.958   2
  10  -8   8 4569.66 197.542   2
  10  -8  11 934.789 117.927   2
  10  -8  13 137.868 97.2807   2
  10  -8  15 4506.38 120.379   2
  10  -8  17 494.742 122.207   2
  10  -8  19 860.480 130.537   2
  10  -8  21 2519.36 225.862   2
  10  -8  22 1667.47 135.493   2
  10  -8  24 185.211 121.941   2
  10  -8  26 130.730 109.370   2
  10  -8  28 644.688 97.4732   2
  10  -8  30 182.386 118.078   2
 -10 -10  30 226.101 86.3986   2
 -10 -10  29 403.691 101.356   2
 -10 -10  28 61.5700 111.618   2
 -10 -10  27 34.4593 137.977   2
 -10 -10  26 416.708 133.231   2
 -10 -10  24 2740.95 268.299   2
 -10 -10  22 168.257 284.998   2
 -10 -10  20 10.5748 277.022   2
 -10 -10  18 1605.00 287.205   2
 -10 -10  16 84.4115 246.453   2
 -10 -10  15 700.616 179.574   2
 -10 -10  13 1981.10 207.937   2
  10 -10 -11 244.142 313.074   2
  10 -10  -9 371.566 301.164   2
  10 -10  -7 109.927 272.810   2
  10 -10  -5 3694.16 326.463   2
  10 -10  -2 808.224 258.788   2
  10 -10   0 9036.02 381.364   2
  10 -10   2 10572.9 411.099   2
  10 -10   4 11427.7 278.605   2
  10 -10   6 261.296 176.852   2
  10 -10   8 1965.07 275.742   2
  10 -10   9 5142.05 307.981   2
  10 -10  11 840.945 289.500   2
  10 -10  13 1789.93 190.337   2
  10 -10  15 2030.95 191.599   2
  10 -10  17 89.3372 173.067   2
  10 -10  19 2200.44 194.816   2
  10 -10  21 272.410 170.771   2
  10 -10  22 128.687 169.426   2
  10 -10  24 805.252 165.786   2
  10 -10  26-0.40576 135.856   2
 -10 -12  27 6.71918 97.8771   2
 -10 -12  26 2.51839 114.331   2
 -10 -12  24 23.1356 187.799   2
  10 -12  -4 28.4992 323.142   2
  10 -12  -2 3091.24 344.719   2
  10 -12   0 5441.21 250.832   2
  10 -12  20 180.229 134.325   2
 -10 -14  22 221.871 113.960   2
 -11  -1  36 277.336 85.3052   2
 -11  -1  34 31.6973 109.341   2
 -11  -1  32 65.4444 106.314   2
 -11  -1  31-36.4539 146.757   2
 -11  -1  30 17.8978 241.211   2
 -11  -1  29-37.7350 232.565   2
 -11   1  27 1639.39 178.756   2
 -11  -1  25 74.8627 114.673   2
 -11  -1  23 5186.27 138.041   2
 -11  -1  21 1514.04 104.741   2
 -11  -1  19 1038.60 158.839   2
 -11  -1  18 585.455 144.561   2
 -11  -1  17 29929.6 299.906   2
 -11  -1  16 1734.84 158.240   2
 -11  -1  14 6543.02 185.737   2
 -11  -1  12 4045.59 152.257   2
 -11  -1  10 2285.81 127.834   2
  11  -1  -8 2863.33 105.494   2
  11  -1  -6 1800.96 86.1444   2
  11  -1  -4 2346.77 88.5934   2
  11  -1  -3 20942.1 129.514   2
  11   1  -1 3826.45 48.8352   2
  11   1   1 2887.72 101.057   2
 -11  -1  -3 171.381 69.3306   2
 -11   1  -5 10194.0 66.8067   2
  11  -1   6 5209.18 84.2087   2
 -11   1  -7 8184.44 74.2266   2
 -11   1  -8 529.299 76.1534   2
 -11  -1  -9 380.067 92.0987   2
 -11   1 -10 5382.25 91.2118   2
 -11   1 -12 3720.54 192.524   2
 -11   1 -14 77.1535 171.848   2
 -11   1 -16 14146.2 88.7134   2
 -11   1 -18 8473.83 88.4362   2
 -11   1 -20 3927.80 132.984   2
 -11   1 -21 8107.70 102.050   2
  11   1  23 2033.41 93.0095   2
  11   1  25 651.063 101.600   2
  11   1  27 14.4184 94.9408   2
  11   1  29 47.3410 84.0310   2
  11   1  31 317.631 72.5320   2
  11   1  32 279.870 141.835   2
  11   1  33 133.657 86.4225   2
 -11  -3  36 93.5917 69.1452   2
 -11  -3  34 30.2353 84.5321   2
 -11  -3  32 36.7053 102.689   2
 -11  -3  31 340.914 146.662   2
 -11  -3  30-19.2002 148.957   2
 -11  -3  29-0.82644 263.142   2
 -11  -3  27-27.7664 271.094   2
 -11  -3  25 199.097 166.140   2
 -11   3  23 952.420 141.258   2
 -11  -3  21 35.2073 128.366   2
  11  -3 -19 1117.40 113.352   2
  11  -3 -18 1439.37 127.260   2
  11  -3 -17 3116.11 143.313   2
  11  -3 -16 95.7927 120.412   2
  11  -3 -14 31619.3 251.440   2
 -11  -3  12 1779.09 124.090   2
 -11  -3  10 5348.83 166.023   2
 -11  -3   8 12270.4 188.473   2
  11  -3  -6 9381.31 292.620   2
 -11   3   4 11371.9 296.264   2
 -11   3   3 2358.98 155.140   2
 -11   3   2 2443.20 216.941   2
 -11   3   1 9221.99 130.151   2
 -11   3  -1 2593.35 59.9299   2
 -11   3  -3 4786.38 86.2652   2
  11  -3   5 1587.66 75.2241   2
  11  -3   7 18643.2 161.892   2
 -11   3 -10 404.637 87.7763   2
 -11   3 -12 1989.72 132.788   2
 -11   3 -14 731.303 83.5396   2
 -11   3 -16 10463.6 109.097   2
 -11   3 -18 8603.95 91.1628   2
 -11   3 -20 1438.53 163.942   2
 -11   3 -21 5710.55 100.029   2
  11   3  23 339.988 94.9840   2
  11   3  25 91.5374 94.0698   2
  11   3  27 318.074 88.0838   2
  11   3  29-9.95032 74.4264   2
  11  -3  31 116.910 84.6050   2
  11   3  32 192.677 123.827   2
  11  -3  33 107.793 119.829   2
 -11  -5  34 29.6466 95.4324   2
 -11  -5  32 51.6052 89.2118   2
 -11  -5  31 44.1641 97.0487   2
 -11  -5  30 49.1428 99.3333   2
 -11  -5  29-15.5195 102.847   2
 -11  -5  28 1.81607 164.016   2
 -11  -5  27 129.313 112.215   2
 -11  -5  25 31.0379 284.757   2
 -11  -5  23 3581.58 203.194   2
 -11  -5  21 528.432 134.637   2
 -11  -5  19 141.903 125.842   2
 -11  -5  18 349.987 200.973   2
 -11   5  17 30533.3 243.275   2
 -11  -5  16 407.376 110.705   2
 -11  -5  14 1164.11 132.897   2
 -11   5  12 4749.36 158.252   2
 -11   5  10 20674.9 294.387   2
 -11   5   8 2290.39 184.617   2
 -11   5   6 421.156 226.285   2
 -11   5   4 1375.51 211.039   2
 -11   5   3 2997.62 161.520   2
 -11   5   1 26767.0 263.651   2
  11  -5   1 184.872 127.302   2
 -11   5  -3 14120.8 201.992   2
 -11  -5  -5 17795.5 260.893   2
 -11  -5  -7 6470.90 186.374   2
  11  -5  10 337.609 80.9116   2
 -11  -5 -12 6541.24 125.148   2
  11  -5  14 6839.01 94.5542   2
  11  -5  16 3550.76 106.756   2
  11  -5  18 67.9403 109.520   2
  11  -5  20 54.4647 202.518   2
  11  -5  21 6072.64 140.949   2
  11  -5  23 198.733 118.667   2
  11  -5  25 493.218 117.990   2
  11  -5  27 250.673 107.989   2
  11  -5  29 64.5365 92.0472   2
  11  -5  31 36.5374 90.7929   2
 -11  -7  34 266.182 157.693   2
 -11  -7  32 0.05255 214.608   2
 -11  -7  31 283.533 114.631   2
 -11  -7  30 218.833 120.981   2
 -11  -7  29 274.630 134.067   2
 -11  -7  28 103.113 168.528   2
 -11  -7  27 153.843 146.607   2
 -11  -7  25 171.310 307.833   2
 -11  -7  23 391.492 274.745   2
 -11  -7  21 2543.22 191.163   2
 -11   7  19 14385.2 225.678   2
 -11  -7  18 2760.18 269.234   2
 -11  -7  17 1.46952 166.460   2
 -11  -7  16 1329.19 142.366   2
 -11  -7  14 19829.8 216.679   2
 -11  -7  12 390.750 151.365   2
 -11   7  10 3933.84 310.468   2
 -11   7   8 6541.66 316.211   2
 -11   7   6 1442.74 256.640   2
 -11   7   3 1025.10 235.162   2
  11  -7  -1 591.837 162.584   2
  11  -7   1 991.931 222.036   2
  11  -7   3 4993.88 278.396   2
  11  -7   5 3784.61 258.155   2
  11  -7   7 4307.47 172.705   2
  11  -7  10 1688.03 93.3862   2
  11  -7  12 563.670 82.1387   2
  11  -7  14 974.999 93.7267   2
  11  -7  16 5438.92 118.820   2
  11  -7  18 4848.11 133.889   2
  11  -7  20 118.296 203.318   2
  11  -7  21 51.4964 118.335   2
  11  -7  23 6193.34 138.627   2
  11  -7  25 1425.03 132.737   2
  11  -7  27 209.410 114.792   2
  11  -7  29 23.1184 92.2153   2
 -11  -9  32 0.95752 153.759   2
 -11  -9  31-11.9178 84.8409   2
 -11  -9  30 55.6859 96.5996   2
 -11  -9  29 195.302 112.675   2
 -11  -9  28 43.0585 144.668   2
 -11  -9  27 59.2463 128.986   2
 -11  -9  25 110.929 277.588   2
 -11  -9  23 6573.88 337.120   2
 -11  -9  21 1230.57 283.252   2
 -11  -9  19 70.7307 280.977   2
 -11  -9  17 3194.64 209.354   2
 -11  -9  16 2549.22 180.361   2
 -11  -9  14 97.8640 144.135   2
 -11   9  12 4608.58 366.999   2
 -11   9  10 10681.1 446.025   2
  11  -9  -8 1051.22 213.722   2
  11  -9  -6 268.616 186.599   2
  11  -9  -3 2271.42 299.452   2
  11  -9  -1 22418.0 517.679   2
  11  -9   1 3634.71 306.482   2
  11  -9   3 1395.03 268.822   2
  11  -9   5 11537.5 386.761   2
  11  -9   7 947.464 128.244   2
  11  -9   8 23.3207 153.670   2
  11  -9  10 109.280 243.796   2
  11  -9  12 6716.18 176.880   2
  11  -9  14 3087.17 159.842   2
  11  -9  16 290.343 124.084   2
  11  -9  18 336.134 121.518   2
  11  -9  20 1038.37 189.759   2
  11  -9  21 3619.08 135.657   2
  11  -9  23 158.848 115.603   2
  11  -9  25 271.852 104.827   2
  11  -9  27 238.619 142.175   2
 -11 -11  28-15.7976 85.8599   2
 -11 -11  27-14.5707 97.8029   2
 -11 -11  25 12.5855 209.206   2
 -11 -11  23 103.039 238.328   2
 -11 -11  21-14.3383 239.933   2
 -11 -11  19 401.950 261.873   2
  11 -11 -10 254.847 428.923   2
  11 -11  -8 491.392 333.441   2
  11 -11  -6 101.563 305.880   2
  11 -11  -3 17.2823 283.323   2
  11 -11  -1 1154.95 307.281   2
  11 -11   1 1832.20 301.133   2
  11 -11   3 144.380 201.396   2
  11 -11   5 2186.92 224.187   2
  11 -11   7 4124.41 339.140   2
  11 -11  16 885.176 151.838   2
  11 -11  18 714.154 164.321   2
  11 -11  20 170.811 144.370   2
  11 -11  21 366.559 153.983   2
  11 -11  23 408.248 135.773   2
 -11 -13  25 5.75505 101.847   2
 -12   0  32 323.985 190.992   2
 -12   0  30 363.212 214.105   2
 -12   0  28 4627.44 258.722   2
 -12   0  26 3954.89 199.561   2
  12   0 -24 2111.25 151.383   2
 -12   0  22 183.344 160.078   2
 -12   0  20 1969.93 166.599   2
 -12   0  18 4399.53 235.903   2
  12   0  -4 8217.87 111.475   2
  12   0  -2 194.969 137.239   2
  12   0   0 10748.9 187.191   2
 -12   0  -2 53959.5 320.826   2
 -12   0  -4 6861.92 113.463   2
 -12   0  -6 2365.42 63.9295   2
 -12   0  -8 11451.3 289.936   2
 -12   0 -20 2781.99 117.286   2
 -12   0 -22 2594.47 122.644   2
  12   0  24 1789.18 131.571   2
  12   0  26 2505.76 152.962   2
  12   0  28 1655.85 138.767   2
  12   0  30 671.127 113.774   2
  12   0  32 628.540 136.678   2
 -12  -2  37 113.934 93.0565   2
 -12  -2  35 104.770 89.4001   2
 -12  -2  33 104.868 98.2670   2
 -12  -2  32 14.4690 138.378   2
 -12  -2  31 637.246 148.363   2
 -12  -2  30 171.170 258.997   2
 -12  -2  28 382.669 259.928   2
 -12  -2  26 141.405 254.751   2
 -12  -2  24 260.245 138.782   2
 -12  -2  22 1284.44 144.767   2
  12  -2 -20 1422.53 112.397   2
  12  -2 -19 1235.31 126.692   2
 -12  -2  18 450.748 96.9781   2
 -12  -2  17 1732.21 123.753   2
 -12  -2  15 546.834 116.328   2
 -12  -2  13 1377.27 112.796   2
 -12  -2  11 302.734 107.068   2
  12  -2  -9 84136.1 313.572   2
 -12  -2   7 21524.7 205.080   2
 -12  -2   6 444.285 116.099   2
 -12  -2   5 481.792 112.629   2
 -12  -2   4 1947.28 89.5020   2
 -12  -2   2 583.791 67.9000   2
  12   2   0 2248.18 99.6782   2
 -12   2  -2 23027.6 126.304   2
 -12   2  -4 10738.5 88.6180   2
 -12   2  -6 4101.45 100.459   2
 -12   2  -7 26916.0 198.316   2
 -12   2  -8 2624.34 107.755   2
 -12   2  -9 16407.9 138.486   2
 -12   2 -11 377.746 147.836   2
 -12   2 -13 22709.3 320.998   2
  12  -2  15 31902.6 127.390   2
 -12   2 -17 4640.32 74.7407   2
 -12   2 -19 196.944 108.994   2
 -12   2 -20 413.859 77.4846   2
  12   2  22 2592.24 91.8510   2
  12   2  24 505.506 99.6891   2
  12   2  26 7.06579 93.9834   2
  12   2  28 765.639 89.3561   2
  12   2  30 173.828 72.7803   2
  12   2  32 123.172 96.5501   2
  12  -2  33 52.1565 71.8478   2
 -12  -4  35-9.62663 65.2652   2
 -12  -4  33 87.4552 88.0572   2
 -12  -4  32 17.9135 97.0126   2
 -12  -4  31 111.746 136.312   2
 -12  -4  30 5.24867 142.928   2
 -12  -4  29 235.496 187.506   2
 -12  -4  28 516.721 274.224   2
 -12  -4  26 1163.29 142.306   2
 -12  -4  24 4907.83 209.344   2
 -12   4  22 42.9695 131.170   2
 -12   4  20 723.280 129.517   2
 -12  -4  19 1295.64 153.599   2
 -12   4  18 4612.55 147.273   2
  12  -4 -17 320.790 109.135   2
  12  -4 -15 252.423 144.045   2
  12  -4 -13 1998.28 169.432   2
 -12  -4  11 10945.9 221.105   2
 -12  -4   9 11782.3 202.907   2
  12  -4  -7 1152.42 270.420   2
 -12   4   4 20622.5 211.046   2
 -12   4   2 24160.9 257.287   2
 -12   4   0 648.042 133.502   2
 -12  -4  -2 454.294 130.953   2
 -12   4  -4 5256.75 125.541   2
  12  -4   6 8067.10 129.854   2
  12  -4   7 1669.86 153.981   2
 -12  -4  -9 13704.3 171.540   2
 -12  -4 -11 13434.0 217.218   2
  12  -4  13 336.818 61.3329   2
  12  -4  15 382.876 67.4729   2
  12  -4  17 450.785 79.4201   2
 -12  -4 -19 3454.01 161.581   2
 -12  -4 -20 205.303 100.930   2
  12  -4  22 787.034 126.140   2
  12  -4  24 6372.58 147.478   2
  12  -4  26 2618.86 124.057   2
  12  -4  28 409.060 107.423   2
  12  -4  30 1125.25 91.2862   2
  12  -4  32 1147.15 133.893   2
 -12  -6  33 130.471 101.623   2
 -12  -6  32 91.0762 105.925   2
 -12  -6  31 82.3303 112.241   2
 -12  -6  30 46.0939 76.1682   2
 -12  -6  29 78.4144 104.839   2
 -12  -6  28 93.4621 106.331   2
 -12  -6  26 54.2716 108.259   2
 -12  -6  24 122.002 289.210   2
 -12  -6  22 277.854 166.611   2
 -12  -6  20-25.6893 138.004   2
 -12  -6  19 497.833 214.526   2
 -12  -6  18 4404.46 185.819   2
 -12  -6  17 201.133 129.820   2
 -12  -6  15 425.217 124.668   2
 -12  -6  13 609.978 154.711   2
 -12  -6  11 624.935 157.021   2
 -12   6   9 31587.5 526.266   2
 -12   6   7 2356.99 265.083   2
 -12   6   4 8551.93 300.519   2
 -12   6   2 1383.86 148.252   2
 -12   6   0 18474.9 207.203   2
 -12   6  -2 17674.7 244.884   2
  12  -6   4 365.162 203.213   2
  12  -6   6 240.623 192.238   2
  12  -6   9 5479.97 139.460   2
  12  -6  11 91.8024 80.8917   2
  12  -6  13 10709.3 111.140   2
  12  -6  15 5372.92 118.830   2
  12  -6  17 1664.32 114.867   2
  12  -6  19 295.379 203.825   2
  12  -6  20 1141.75 120.075   2
  12  -6  22 576.554 122.188   2
  12  -6  24 1934.50 126.735   2
  12  -6  26 68.6150 107.082   2
  12  -6  28 194.099 111.675   2
  12  -6  30 405.714 90.6091   2
 -12  -8  33-57.9547 157.400   2
 -12  -8  32 17.6319 185.577   2
 -12  -8  31 29.4256 203.823   2
 -12  -8  30 90.2232 108.622   2
 -12  -8  29 79.4305 131.471   2
 -12  -8  28 367.801 130.060   2
 -12  -8  26 527.791 282.777   2
 -12  -8  24 1489.96 290.868   2
 -12  -8  22-26.4056 285.675   2
 -12  -8  20 1733.55 281.757   2
 -12  -8  19 1995.52 253.062   2
 -12  -8  18 330.756 175.787   2
 -12  -8  17 2272.34 171.389   2
 -12  -8  15 295.043 146.976   2
 -12  -8  13 2912.87 151.718   2
 -12   8  11 9715.54 403.990   2
 -12   8   9 8486.29 378.506   2
 -12   8   7 258.722 264.610   2
  12  -8  -4 47.5821 175.931   2
 -12   8   2 8121.10 234.019   2
  12  -8   0 15384.6 429.417   2
  12  -8   2 7002.89 348.141   2
  12  -8   4 5979.98 306.778   2
  12  -8   6 458.051 244.807   2
  12  -8   9 314.617 96.2925   2
  12  -8  10 9991.05 249.159   2
  12  -8  11 225.692 120.095   2
  12  -8  13 4520.66 117.988   2
  12  -8  15 2056.11 128.639   2
  12  -8  17 1282.37 129.813   2
  12  -8  19 7729.00 240.460   2
  12  -8  20 4319.17 146.078   2
  12  -8  22 1045.25 132.926   2
  12  -8  24 140.223 116.612   2
  12  -8  26 509.118 108.727   2
  12  -8  28 483.954 88.9962   2
 -12 -10  30 362.906 161.616   2
 -12 -10  29 118.649 108.950   2
 -12 -10  28 185.557 105.150   2
 -12 -10  26 242.125 126.698   2
 -12 -10  24 169.206 245.632   2
 -12 -10  22 222.433 251.724   2
 -12 -10  20 1112.49 285.419   2
 -12 -10  18 608.666 263.663   2
 -12 -10  17 168.379 266.615   2
 -12 -10  15 675.405 247.129   2
 -12 -10  13 513.503 197.968   2
  12 -10 -11 3118.04 398.481   2
  12 -10  -9 70.1410 318.905   2
  12 -10  -7 4103.90 373.400   2
  12 -10  -4 988.347 312.698   2
  12 -10  -2 183.386 270.977   2
  12 -10   0 3538.72 331.994   2
  12 -10   2 273.516 269.177   2
  12 -10   4 108.036 269.005   2
  12 -10   6 374.556 183.381   2
  12 -10   9 287.305 258.353   2
  12 -10  15 608.173 176.756   2
  12 -10  17 3579.85 195.944   2
  12 -10  19 1666.57 165.918   2
  12 -10  20 389.604 160.541   2
  12 -10  22 4873.59 189.778   2
  12 -10  24 42.7745 138.455   2
 -12 -12  26 106.716 110.148   2
 -12 -14  22 356.608 108.732   2
  12 -14   2 2950.20 168.238   2
 -13  -1  36 28.9170 81.6054   2
 -13  -1  34 35.8866 109.738   2
 -13  -1  33 28.1711 97.4884   2
 -13  -1  32 20.0043 133.439   2
 -13  -1  31 319.944 221.032   2
 -13  -1  29 196.001 234.952   2
 -13   1  27 400.901 168.291   2
 -13  -1  25 178.740 114.622   2
  13  -1 -23 3561.81 120.824   2
 -13  -1  21 314.444 98.8748   2
 -13  -1  20 736.265 123.593   2
  13  -1 -19 3041.96 119.591   2
  13  -1 -18 1711.73 109.717   2
  13  -1 -16 3747.56 144.334   2
 -13  -1  14 1423.48 128.665   2
 -13  -1  12 804.499 112.313   2
  13  -1 -10 55227.8 270.428   2
  13  -1  -8 2732.37 104.463   2
 -13  -1   7 5728.88 160.700   2
 -13  -1   6 1631.47 121.112   2
  13  -1  -5 25871.0 188.391   2
 -13  -1   3 468.819 59.7532   2
  13   1  -1 3452.59 113.055   2
  13   1   1 15781.7 153.764   2
 -13  -1  -3 20411.3 160.545   2
 -13  -1  -4 1676.48 140.165   2
 -13   1  -5 1441.08 66.3212   2
 -13   1  -6 25278.0 238.837   2
 -13   1  -7 758.043 131.496   2
 -13   1  -8 2326.20 99.0619   2
 -13   1 -10 729.785 139.596   2
 -13   1 -12 1310.85 165.489   2
  13   1  14 85.5249 62.0909   2
  13  -1  16 345.463 61.9067   2
 -13   1 -18 5309.82 118.757   2
 -13   1 -19 5551.78 90.2748   2
 -13   1 -21 3419.53 89.9538   2
  13   1  23 2125.35 91.9548   2
  13   1  25 1375.29 104.618   2
  13   1  27 72.9113 90.8770   2
  13   1  29 105.228 80.5342   2
  13   1  31 24.6227 107.361   2
  13  -1  32 674.175 70.5076   2
 -13  -3  36 20.4604 66.1605   2
 -13  -3  34-4.41543 83.2873   2
 -13  -3  33-33.0960 93.8308   2
 -13  -3  32 841.211 143.051   2
 -13  -3  31 25.4366 141.562   2
 -13  -3  29 1366.35 294.661   2
 -13  -3  27 182.097 279.393   2
 -13  -3  25 461.933 270.504   2
 -13   3  23 118.988 134.599   2
 -13  -3  21 355.192 131.001   2
  13  -3 -20 2607.63 143.892   2
  13  -3 -19 1111.27 111.835   2
  13  -3 -18 73.9989 97.7293   2
  13  -3 -16 6435.93 154.281   2
 -13  -3  14 2055.72 122.867   2
 -13  -3  12 292.182 137.545   2
 -13  -3  10 13004.5 215.463   2
 -13  -3   8 3895.08 148.141   2
 -13  -3   7 400.031 133.593   2
 -13  -3   6 3481.06 151.559   2
 -13  -3   5 65.9832 94.5052   2
  13  -3  -3 43.8138 162.005   2
 -13   3   1 20742.1 216.320   2
 -13   3  -1 1135.24 104.612   2
 -13  -3  -3 17033.7 107.395   2
 -13  -3  -4 29042.0 244.600   2
 -13  -3  -5 14769.6 122.572   2
 -13  -3  -6 7434.13 139.918   2
 -13  -3  -7 477.599 138.705   2
 -13  -3  -8 11259.6 128.733   2
 -13   3 -10 720.689 75.3102   2
 -13  -3 -12 1401.14 156.850   2
  13  -3  14 282.410 62.1180   2
  13  -3  16 18.2491 59.7953   2
 -13   3 -18 2223.18 88.8586   2
 -13   3 -19 850.318 76.6868   2
  13  -3  21 735.382 91.9022   2
  13  -3  23 763.222 96.2198   2
  13   3  25 472.962 93.9437   2
  13  -3  27 321.959 86.8801   2
  13  -3  29 775.920 98.9442   2
  13   3  31 281.494 100.927   2
  13  -3  32 73.4406 76.8867   2
 -13  -5  34 11.9915 91.7976   2
 -13  -5  33 47.6811 77.2391   2
 -13  -5  32 62.5544 85.1099   2
 -13  -5  31 82.8726 95.7250   2
 -13  -5  30 95.6723 159.620   2
 -13  -5  29 954.814 149.508   2
 -13  -5  27 8.17062 136.314   2
 -13  -5  25 463.429 273.043   2
 -13  -5  23 1198.20 174.055   2
 -13  -5  21 76.0846 129.701   2
 -13  -5  20 217.163 203.153   2
 -13   5  19 3553.75 150.681   2
 -13  -5  18 566.477 113.090   2
 -13  -5  16-35.6461 107.239   2
 -13  -5  14 62.6238 129.340   2
 -13  -5  12 388.637 130.104   2
 -13  -5  10 725.004 120.015   2
 -13   5   8 85.0897 176.854   2
 -13   5   5 86.8730 216.501   2
 -13   5   3 1084.25 155.320   2
 -13   5   1 8729.62 199.647   2
 -13   5  -1 15666.1 224.963   2
 -13   5  -3 18158.7 229.626   2
 -13  -5  -5 373.958 152.412   2
 -13  -5  -8 129.970 104.839   2
 -13  -5 -10 1280.51 87.8670   2
  13  -5  12 1473.38 64.9036   2
  13  -5  14 98.2431 74.4233   2
  13  -5  16 1603.09 87.2582   2
  13  -5  18 1749.82 170.831   2
  13  -5  19 2837.60 124.223   2
  13  -5  21 775.453 118.557   2
  13  -5  23 7548.82 150.979   2
  13  -5  25 106.632 113.667   2
  13  -5  27 300.386 106.388   2
  13  -5  29 847.157 108.371   2
  13  -5  31 6.09583 124.224   2
 -13  -7  34-52.5417 148.499   2
 -13  -7  33 3.12914 179.133   2
 -13  -7  32 556.321 215.726   2
 -13  -7  31 23.9615 223.933   2
 -13  -7  30 12.1055 130.071   2
 -13  -7  29 73.2003 123.118   2
 -13  -7  27 628.530 147.291   2
 -13  -7  25 2933.94 306.514   2
 -13  -7  23 3067.72 325.698   2
 -13  -7  21 7828.01 335.231   2
 -13  -7  20 3766.57 288.237   2
 -13   7  19 3728.17 166.966   2
 -13   7  18 2576.58 161.324   2
 -13   7  16 18022.4 231.749   2
 -13  -7  14 1035.80 136.980   2
 -13  -7  12 2715.92 136.455   2
 -13   7  10 6015.13 349.898   2
 -13   7   8 207.891 264.723   2
 -13   7   5 2369.12 261.454   2
 -13   7   3 3174.21 259.322   2
  13  -7  -1 323.978 157.808   2
 -13   7  -1 5580.32 196.462   2
  13  -7   3 8057.42 347.347   2
  13  -7   5 6949.95 309.510   2
  13  -7   8 1534.05 90.5514   2
  13  -7  10 1888.01 86.8189   2
  13  -7  12 928.539 80.7137   2
  13  -7  14 1123.31 96.4726   2
  13   7  16 2884.03 122.083   2
  13  -7  18 543.802 197.171   2
  13  -7  19 2613.48 125.077   2
  13  -7  21 2365.32 131.152   2
  13  -7  23 1238.11 133.345   2
  13  -7  25 367.753 125.412   2
  13  -7  27 223.715 106.525   2
  13  -7  29 23.9751 82.6886   2
 -13  -9  31 162.226 172.727   2
 -13  -9  30 144.535 92.0198   2
 -13  -9  29 402.603 105.400   2
 -13  -9  27 41.3973 126.441   2
 -13  -9  25 14.4560 270.608   2
 -13  -9  23 210.423 288.278   2
 -13  -9  21 378.931 287.134   2
 -13  -9  19 3002.78 285.652   2
 -13  -9  18-47.8435 285.952   2
 -13  -9  16 1117.39 170.885   2
 -13  -9  14 1082.79 156.288   2
 -13  -9  12 77.1367 171.802   2
 -13   9  10 8239.83 413.839   2
 -13   9   8 2787.37 246.718   2
 -13   9   5 1599.27 227.305   2
  13  -9  -3 5441.69 345.608   2
  13  -9  -1 342.598 267.743   2
  13  -9   1 1558.12 280.090   2
  13  -9   3 13264.9 418.830   2
  13  -9   5 15528.3 435.057   2
  13  -9   8 1110.86 122.269   2
  13  -9  10 9496.86 193.238   2
  13  -9  12 2073.64 283.628   2
  13  -9  14 9.48841 114.378   2
  13  -9  16 4704.83 142.270   2
  13  -9  18 2064.00 197.930   2
  13  -9  19 3237.55 137.155   2
  13  -9  21 640.713 118.127   2
  13  -9  23 4291.96 128.976   2
  13  -9  25 1216.34 101.530   2
 -13 -11  27 30.3675 94.6447   2
 -13 -11  25 721.890 202.172   2
 -13 -11  23 144.788 214.343   2
 -13 -11  21-101.016 236.511   2
 -13 -11  19 2468.87 266.185   2
 -13 -11  18 331.628 251.347   2
  13 -11  -8-227.556 335.571   2
  13 -11  -5 169.810 308.617   2
  13 -11  -3 6607.34 409.893   2
  13 -11  -1 1604.98 324.790   2
  13 -11   1 2339.24 330.673   2
  13 -11   3 10686.9 313.630   2
  13 -11   5 824.511 208.419   2
  13 -13   3 6791.26 225.971   2
  13 -15  -1 20.5371 151.183   2
 -14   0  34 36.4608 153.558   2
 -14   0  30 421.337 217.431   2
 -14   0  28 498.528 236.780   2
 -14   0  26 50.2626 233.416   2
 -14   0  24 1594.25 146.855   2
  14   0 -22 764.784 137.940   2
 -14   0  20 9057.31 307.207   2
 -14   0  18 3011.06 217.054   2
 -14   0   6 275.364 102.103   2
  14   0  -4 6486.00 220.366   2
  14   0  -2 11576.8 221.319   2
 -14   0   0 2418.10 156.863   2
 -14   0  -2 29713.5 280.711   2
 -14   0  -4 13029.8 171.994   2
 -14   0  -6 71136.1 303.580   2
 -14   0 -18 17065.9 158.664   2
 -14   0 -20 1725.09 117.393   2
  14   0  22 1061.96 128.752   2
  14   0  24 3955.47 141.003   2
  14   0  26 1735.45 141.304   2
  14   0  28 1672.97 132.678   2
  14   0  30 283.384 166.390   2
 -14  -2  35 22.7186 87.5177   2
 -14  -2  34 116.129 87.3870   2
 -14  -2  33 141.074 98.1710   2
 -14  -2  32 18.9717 134.105   2
 -14  -2  30 279.287 246.121   2
 -14  -2  28 249.209 268.721   2
 -14  -2  26 428.410 264.911   2
 -14  -2  24 1353.08 149.826   2
  14  -2 -22-31.7958 100.482   2
  14  -2 -21 2821.64 148.857   2
  14  -2 -20 60.8238 93.7667   2
  14  -2 -19 657.407 104.188   2
  14  -2 -17 2940.67 112.040   2
  14  -2 -15 696.107 108.707   2
  14  -2 -13 374.980 102.148   2
  14  -2 -11 20722.4 188.994   2
  14  -2  -9 23009.9 232.478   2
 -14  -2   8 1459.02 139.151   2
 -14  -2   7 4040.22 158.319   2
 -14  -2   6 23349.5 205.245   2
 -14  -2   4 1672.92 91.5209   2
  14   2  -2 5824.36 141.004   2
  14   2   0 6776.89 134.992   2
 -14   2  -2 203.997 89.5718   2
 -14  -2  -3 483.864 110.681   2
  14   2   4 370.495 58.6236   2
 -14  -2  -5 3633.96 154.999   2
 -14  -2  -6 985.972 142.154   2
 -14  -2  -7 1773.61 82.9127   2
 -14   2  -9 3663.20 110.473   2
 -14   2 -11 8222.83 200.887   2
  14  -2  13 15659.7 96.7315   2
  14  -2  15 206.904 58.4670   2
 -14   2 -17 4504.35 102.526   2
 -14   2 -18 567.717 71.7796   2
 -14   2 -20 7755.29 96.6587   2
  14   2  22 836.738 88.5237   2
  14   2  24 729.469 98.8385   2
  14   2  26 894.513 94.2759   2
  14   2  28 106.542 79.9640   2
  14   2  30 144.168 115.342   2
  14  -2  31 1578.99 81.5233   2
 -14  -4  35 55.0004 61.8087   2
 -14  -4  34 93.9271 75.4674   2
 -14  -4  33 28.0205 84.9945   2
 -14  -4  32 43.0975 94.9365   2
 -14  -4  31 240.546 168.313   2
 -14  -4  30-126.447 144.933   2
 -14  -4  28 1090.19 297.209   2
 -14  -4  26 652.030 275.174   2
 -14  -4  24 1989.58 295.543   2
 -14   4  22 683.948 134.337   2
 -14  -4  21 402.409 207.702   2
 -14   4  20 3718.76 137.746   2
  14  -4 -19 720.952 115.959   2
  14  -4 -17 714.338 118.144   2
  14  -4 -15 99.9494 105.278   2
 -14  -4  13 2837.06 163.881   2
 -14  -4  11 634.652 133.807   2
 -14  -4   9 921.009 138.282   2
 -14  -4   8 51573.5 408.213   2
 -14  -4   7 6907.17 186.246   2
 -14   4   6 3132.12 120.266   2
 -14   4   4 3074.13 152.642   2
 -14   4   2 20922.7 262.059   2
 -14   4   0 3725.09 159.886   2
  14   4   2 5580.75 109.212   2
 -14   4  -4 14247.8 172.220   2
 -14  -4  -6 497.711 250.908   2
 -14  -4  -7 4886.47 174.842   2
 -14  -4  -9 5094.65 131.206   2
 -14  -4 -11 2703.83 80.1547   2
  14  -4  13 797.831 64.8867   2
  14  -4  15 33.4384 69.0545   2
  14  -4  17 1495.87 122.350   2
  14  -4  18 1998.29 97.9741   2
  14  -4  20 1858.93 119.702   2
  14  -4  22 1082.92 126.462   2
  14  -4  24 1538.04 125.583   2
  14  -4  26 126.110 111.603   2
  14  -4  28 1968.07 108.112   2
  14   4  30 691.100 106.315   2
  14  -4  31 57.8831 80.5097   2
 -14  -6  34 217.369 168.287   2
 -14  -6  33 83.1047 188.280   2
 -14  -6  32-39.0592 104.027   2
 -14  -6  31 0.03285 121.032   2
 -14  -6  30 77.5661 119.502   2
 -14  -6  28 267.201 99.6621   2
 -14  -6  26 797.955 144.395   2
 -14  -6  24 420.648 276.904   2
 -14  -6  22 804.541 288.974   2
 -14  -6  21 5247.72 278.779   2
 -14   6  20 4877.12 174.053   2
 -14  -6  19 171.867 142.746   2
 -14   6  17 4238.56 163.442   2
 -14  -6  15 17.6951 127.163   2
 -14   6  13 2677.66 138.304   2
 -14  -6  11 8287.67 215.721   2
 -14   6   9 163.653 270.396   2
 -14   6   6 558.950 257.142   2
 -14   6   4 965.990 229.057   2
 -14   6   2 32169.6 329.497   2
 -14   6   0 261.018 121.421   2
 -14   6  -2 2272.99 127.263   2
  14  -6   4 7570.18 298.308   2
  14   6   7 1194.35 143.396   2
  14  -6   9 1862.34 75.7430   2
  14  -6  11 14950.6 107.707   2
  14  -6  13 11463.2 110.408   2
  14  -6  15 190.284 83.3350   2
  14  -6  17 1473.10 194.546   2
  14  -6  18 945.951 118.095   2
  14  -6  20 1659.41 123.456   2
  14  -6  22 362.951 124.780   2
  14  -6  24 297.728 116.659   2
  14  -6  26 443.145 125.262   2
  14  -6  28 1760.03 110.498   2
  14  -6  30 943.849 80.6257   2
 -14  -8  32 18.3655 165.246   2
 -14  -8  31 350.455 206.593   2
 -14  -8  30 181.462 214.045   2
 -14  -8  28-1.12751 118.111   2
 -14  -8  26-16.2264 262.685   2
 -14  -8  24 1295.76 305.306   2
 -14  -8  22 331.326 298.323   2
 -14  -8  20 521.707 292.936   2
 -14  -8  19 211.511 285.593   2
 -14  -8  17 2209.84 167.725   2
 -14  -8  15 7733.55 193.528   2
 -14  -8  13 1771.14 151.640   2
 -14  -8  11 148.970 129.985   2
 -14   8   9 645.398 283.521   2
 -14   8   6 2576.81 293.185   2
 -14   8   4 6617.48 252.873   2
 -14   8   2 2319.42 193.698   2
  14  -8   0 491.256 270.514   2
  14  -8   2 5287.68 340.884   2
  14  -8   4 2532.23 282.562   2
  14  -8   7 2939.77 108.232   2
  14  -8   9 436.418 97.7464   2
  14  -8  11 217.632 102.917   2
  14  -8  13 1791.14 163.401   2
  14  -8  15 110.275 120.014   2
  14  -8  17 1838.57 189.306   2
  14  -8  18 3848.48 144.390   2
  14  -8  20 611.589 124.907   2
  14  -8  22 115.296 120.998   2
  14  -8  24-20.4323 113.063   2
  14  -8  26 392.299 98.1528   2
 -14 -10  28 61.0070 95.8003   2
 -14 -10  26 1.43244 117.164   2
 -14 -10  24 192.976 237.962   2
 -14 -10  22 73.5875 247.586   2
 -14 -10  20 1603.73 278.645   2
 -14 -10  19 225.787 251.430   2
 -14 -10  17-5.39052 258.651   2
 -14 -10  15 2960.57 280.612   2
 -14 -10  11-66.0642 181.461   2
  14 -10  -9 3199.43 376.304   2
  14 -10  -6 170.191 336.702   2
  14 -10  -4 1962.76 356.866   2
  14 -10  -2 1618.38 333.760   2
  14 -10   0 328.588 317.046   2
  14 -10   2 64.7149 286.604   2
  14 -10   4 287.921 191.917   2
  14 -10   7 4938.01 169.499   2
  14 -10   9 272.252 178.690   2
  14 -10  20 5499.25 177.834   2
  14 -10  22 366.742 136.936   2
 -14 -12  26-11.9342 99.4514   2
  14 -12   4 1581.39 200.429   2
  14 -14   2-27.8989 174.369   2
  14 -16  -6 22.8721 122.980   2
 -15  -1  36 2.24820 74.7006   2
 -15  -1  35 15.2378 89.1937   2
 -15  -1  34 61.4520 101.272   2
 -15  -1  33 43.7003 95.8242   2
 -15  -1  32 161.056 203.112   2
 -15  -1  31 552.987 228.204   2
 -15  -1  29 203.140 255.452   2
 -15   1  27-86.8195 169.221   2
 -15   1  25 676.691 175.571   2
  15  -1 -23 757.630 107.531   2
  15  -1 -22-34.4103 127.673   2
 -15  -1  21 332.448 99.7699   2
 -15  -1  20 35.1822 95.7939   2
 -15  -1  18 120.812 86.8944   2
 -15  -1  16 856.228 116.114   2
 -15  -1  14 1260.98 117.019   2
  15  -1 -12 91500.2 363.102   2
  15  -1 -10 12124.9 158.408   2
  15  -1  -9 36442.0 512.225   2
  15  -1  -8 6379.86 120.028   2
  15  -1  -7 19753.0 197.252   2
  15  -1  -5 447.915 165.351   2
  15   1  -3 7504.09 158.515   2
  15   1  -1 5347.27 137.920   2
  15  -1   1 199.487 103.311   2
 -15   1  -3 3759.69 100.926   2
 -15  -1  -4 13798.3 409.534   2
 -15  -1  -5 16122.2 224.868   2
 -15  -1  -6 1598.28 102.336   2
 -15   1  -8 666.950 136.587   2
 -15   1 -10 1802.14 147.320   2
  15   1  12 349.392 58.5489   2
  15   1  14 668.784 59.3030   2
 -15   1 -16 308.019 70.3850   2
  15  -1  17 266.637 69.4614   2
 -15   1 -19 79.9860 77.7058   2
  15   1  21 10991.1 115.268   2
  15   1  23 6459.58 106.673   2
  15   1  25 183.544 95.4493   2
  15   1  27 194.976 87.2727   2
  15  -1  29-21.9428 171.345   2
  15   1  30 332.424 65.4282   2
 -15  -3  35 52.9938 68.9018   2
 -15  -3  34 604.016 83.6227   2
 -15  -3  33 1.22068 91.4556   2
 -15  -3  32 145.783 131.758   2
 -15  -3  31 398.009 141.714   2
 -15  -3  29-56.4707 258.183   2
 -15  -3  27 184.422 270.267   2
 -15  -3  25 374.069 277.717   2
 -15   3  23 3.38068 137.967   2
 -15  -3  22 34.8235 205.864   2
 -15  -3  21 178.384 124.258   2
 -15  -3  20 1261.02 130.739   2
 -15  -3  18-1.64734 113.648   2
 -15  -3  16 9.08718 104.294   2
  15  -3 -14 3149.91 154.579   2
 -15  -3  12 13685.8 221.625   2
 -15  -3  10 6954.10 169.639   2
 -15  -3   9 4395.17 177.192   2
 -15  -3   8 6483.25 193.134   2
  15  -3  -7 249.817 113.645   2
 -15  -3   5 1739.85 112.014   2
 -15   3   3 4175.54 204.178   2
 -15   3   1 424.633 115.310   2
 -15   3  -1 1532.45 100.808   2
 -15   3  -3 9885.29 119.618   2
 -15   3  -4 568.008 134.910   2
 -15  -3  -5 8720.40 356.788   2
 -15  -3  -6 6641.20 185.256   2
 -15  -3  -8 100.908 86.2242   2
 -15  -3 -10 164.625 120.257   2
  15  -3  12 820.979 61.4202   2
  15  -3  14 86.1095 64.2787   2
 -15  -3 -16 618.801 100.995   2
 -15  -3 -17 3433.23 75.1873   2
  15   3  19 4145.14 91.6609   2
  15   3  21 3116.68 91.4984   2
  15   3  23 1024.08 96.8859   2
  15   3  25 3.24908 88.7778   2
  15  -3  27 869.178 107.362   2
  15   3  29 727.185 119.385   2
  15  -3  30 422.414 79.8935   2
 -15  -5  34 62.8943 174.927   2
 -15  -5  33 137.254 75.1155   2
 -15  -5  32-16.5359 84.8835   2
 -15  -5  31 720.366 129.275   2
 -15  -5  29 83.3624 139.767   2
 -15  -5  27-7.95164 273.389   2
 -15  -5  25 718.555 295.084   2
 -15  -5  23 1643.31 295.579   2
 -15  -5  22 159.083 199.079   2
 -15  -5  21 170.503 134.535   2
 -15  -5  20 53.7822 130.032   2
 -15  -5  18-14.2163 113.320   2
 -15  -5  16 1543.40 119.852   2
 -15   5  14 2184.49 121.129   2
 -15   5  12 10707.7 193.213   2
 -15   5  10 1719.68 131.263   2
 -15  -5   9 20065.6 309.432   2
 -15  -5   8 1721.64 159.598   2
 -15   5   7 2213.56 139.582   2
 -15   5   5 1426.38 242.190   2
 -15   5   3 2735.02 178.588   2
 -15   5   1 15444.3 249.999   2
 -15   5  -1 9905.64 173.424   2
 -15   5  -3 7140.07 174.800   2
 -15  -5  -6 1820.17 176.389   2
  15  -5   8 387.003 64.7524   2
  15  -5  10 1388.04 68.9135   2
  15  -5  12 1351.76 76.5020   2
  15  -5  14 171.677 77.9269   2
  15  -5  16 933.081 119.827   2
  15  -5  17 24.2495 87.8719   2
  15  -5  19 127.694 111.522   2
  15  -5  21 10583.1 155.075   2
  15  -5  23 398.212 124.388   2
  15  -5  25 814.161 115.594   2
  15  -5  27 5141.50 118.101   2
  15  -5  29-2.12881 143.124   2
  15  -5  30 6.14385 78.4245   2
 -15  -7  33 161.699 166.534   2
 -15  -7  32 11.1005 183.831   2
 -15  -7  31 52.1463 229.554   2
 -15  -7  29 104.962 264.705   2
 -15  -7  27 625.621 138.038   2
 -15  -7  25 3101.62 310.054   2
 -15  -7  23 1202.55 301.502   2
 -15  -7  21 1736.85 280.957   2
 -15  -7  20 2798.43 297.882   2
 -15   7  18 2797.33 165.064   2
 -15  -7  16 258.623 143.007   2
 -15  -7  14 2340.01 147.438   2
 -15  -7  12 17205.5 211.804   2
 -15  -7  10 391.698 126.491   2
 -15   7   8 2150.27 233.618   2
 -15   7   7 9226.59 373.997   2
 -15   7   5 2084.34 278.768   2
 -15   7   3 327.057 219.256   2
  15  -7  -1 293.644 159.148   2
 -15   7  -1 2688.37 175.181   2
 -15   7  -3 791.084 171.843   2
  15  -7   6 1234.35 100.375   2
  15  -7   8 3684.56 98.3654   2
  15  -7  10 5173.51 104.870   2
  15  -7  12 1054.82 111.041   2
  15  -7  14 295.301 88.0827   2
  15  -7  16-89.5338 166.371   2
  15  -7  17 6481.68 136.116   2
  15  -7  19 2662.15 125.763   2
  15  -7  21 82.3510 125.630   2
  15  -7  23 731.998 125.376   2
  15  -7  25 1540.93 122.585   2
  15  -7  27 256.662 94.6406   2
 -15  -9  31 156.958 164.161   2
 -15  -9  29 10.7979 92.6818   2
 -15  -9  27 407.295 119.120   2
 -15  -9  25 738.193 265.394   2
 -15  -9  23 490.593 284.209   2
 -15  -9  21 579.488 288.891   2
 -15  -9  20 160.260 278.295   2
 -15  -9  18 13.3684 283.387   2
 -15  -9  16 2320.68 274.829   2
 -15  -9  14 3055.68 173.484   2
 -15  -9  12 703.022 184.901   2
 -15  -9  10 11975.6 260.675   2
  15  -9  -7 277.975 238.457   2
  15  -9  -5 132.456 212.104   2
  15  -9  -3-12.6676 281.969   2
  15  -9  -1 1728.90 301.514   2
  15  -9   1 5082.24 355.873   2
  15  -9   3 10077.8 401.533   2
  15  -9   6 80.2843 132.557   2
  15  -9   8 5365.42 158.090   2
  15  -9  10 278.402 111.837   2
  15  -9  12 216.104 161.478   2
  15  -9  14 1855.80 173.393   2
  15  -9  17 2548.96 125.565   2
  15  -9  19 1014.06 115.119   2
  15  -9  21 6243.17 133.825   2
  15  -9  23 385.975 100.757   2
  15  -9  25 308.726 140.240   2
 -15 -11  27 164.667 102.314   2
 -15 -11  25 60.4638 191.634   2
 -15 -11  23 76.3101 211.926   2
 -15 -11  21 73.4468 226.507   2
 -15 -11  20 524.572 232.937   2
  15 -11   6 280.141 193.084   2
  15 -11   8 380.195 178.751   2
  15 -13   3 1144.37 182.613   2
  15 -13   5 170.286 179.814   2
  15 -15  -3 355.166 163.912   2
  15 -15  -1 243.740 151.698   2
 -16   0  36 123.486 104.344   2
 -16   0  34 61.1275 137.184   2
 -16   0  30 59.6925 214.432   2
 -16   0  28 154.899 239.659   2
 -16   0  26 3591.82 270.177   2
 -16   0  24 525.448 143.588   2
 -16   0  22 717.368 136.699   2
  16   0 -10 869.028 132.479   2
  16   0  -8 3807.90 136.717   2
  16   0  -6 14956.1 363.848   2
  16   0  -4 5491.05 219.830   2
 -16   0   2 1287.26 177.067   2
 -16   0   0 1551.32 170.894   2
 -16   0  -2 1538.82 160.159   2
 -16   0  -4 5714.00 358.325   2
 -16   0 -16 39371.5 199.138   2
 -16   0 -18 2278.74 115.342   2
  16   0  20 29944.7 213.545   2
  16   0  22 334.965 125.536   2
  16   0  24 136.736 122.864   2
  16   0  26 1027.28 138.064   2
 -16  -2  36 43.7061 68.4963   2
 -16  -2  35 124.555 84.1436   2
 -16  -2  34 85.3128 83.8996   2
 -16  -2  33 432.629 121.176   2
 -16  -2  32 20.6719 130.145   2
 -16  -2  30-23.2302 244.193   2
 -16  -2  28 87.7746 252.904   2
 -16  -2  26 843.425 281.075   2
 -16  -2  24 225.237 138.190   2
  16  -2 -23 4285.81 176.100   2
  16  -2 -22 53.6269 100.478   2
  16  -2 -21 163.140 95.9773   2
  16  -2 -19 1901.45 98.4746   2
  16  -2 -17 1503.08 88.8111   2
  16  -2 -15 1368.12 109.218   2
  16  -2 -13 1062.38 104.437   2
  16  -2 -11 124.947 123.769   2
  16  -2 -10 392.832 120.411   2
 -16  -2   9 6917.40 186.127   2
  16  -2  -8 18334.8 206.734   2
  16  -2  -6 10181.9 349.318   2
  16  -2  -4 909.817 147.285   2
  16  -2  -2 67.6582 125.544   2
  16   2   0 2751.18 124.178   2
 -16   2  -2 4825.86 112.412   2
 -16   2  -3 27133.7 191.922   2
 -16  -2  -5 3069.78 157.041   2
 -16  -2  -7 29282.2 220.563   2
 -16  -2  -9 5544.28 182.756   2
  16  -2  11 6165.18 75.0989   2
  16  -2  13 2812.54 61.1498   2
 -16   2 -15 4718.24 90.4716   2
  16  -2  16 205.564 66.5624   2
 -16   2 -18 7698.85 93.2823   2
  16   2  20 423.619 84.9747   2
  16   2  22 3090.31 94.7037   2
  16   2  24 1621.58 90.4673   2
  16   2  26 86.2722 84.9236   2
  16  -2  28 371.428 190.099   2
  16  -2  29 2158.68 96.1506   2
  16  -2  31 1339.66 128.503   2
 -16  -4  34 29.3338 70.7425   2
 -16  -4  33 56.0105 83.9127   2
 -16  -4  32 131.916 121.679   2
 -16  -4  30 291.237 139.519   2
 -16  -4  28-7.45722 293.364   2
 -16  -4  26 525.552 296.016   2
 -16  -4  24 417.538 286.997   2
 -16   4  23 564.206 173.370   2
 -16   4  22 961.182 144.184   2
 -16   4  21 1044.80 141.825   2
 -16   4  19 87.6293 110.409   2
  16  -4 -17-3.21239 109.411   2
  16  -4 -15 206.901 105.868   2
 -16  -4  13 353.691 123.942   2
 -16  -4  11 2457.77 150.807   2
 -16  -4  10 6119.15 208.997   2
 -16  -4   9 270.315 141.262   2
  16  -4  -8 1637.23 130.949   2
 -16   4   6 1142.36 108.600   2
 -16   4   4 28572.7 335.993   2
 -16   4   2 12182.3 239.533   2
  16   4   0 1503.50 116.789   2
 -16   4  -2 58690.6 301.258   2
 -16  -4  -5 6682.69 207.635   2
 -16  -4  -7 156.616 137.743   2
  16  -4   9 830.559 70.5935   2
  16  -4  11 202.061 68.5218   2
  16  -4  13 85.3196 72.2045   2
 -16  -4 -15 951.260 129.627   2
  16  -4  16 40.0152 84.3455   2
  16  -4  18 2443.86 102.116   2
  16  -4  20 7891.35 124.973   2
  16  -4  22 668.304 123.370   2
  16  -4  24 758.308 115.218   2
  16  -4  26 752.399 110.213   2
  16  -4  28 460.254 165.493   2
  16  -4  29 132.332 91.8399   2
 -16  -6  34 138.473 155.063   2
 -16  -6  33 81.8488 178.801   2
 -16  -6  32 136.936 200.397   2
 -16  -6  30 136.177 250.402   2
 -16  -6  28 121.325 129.615   2
 -16  -6  26 29.0610 99.7724   2
 -16  -6  24 125.227 284.712   2
 -16  -6  22 289.306 278.585   2
 -16  -6  21 908.447 272.815   2
 -16  -6  20 1181.40 225.838   2
 -16   6  19 5246.62 176.568   2
 -16   6  17 2392.26 147.705   2
 -16  -6  15 1141.82 139.848   2
 -16   6  13 5041.40 154.829   2
 -16  -6  11 32.5207 114.486   2
 -16  -6  10 1007.33 166.225   2
 -16  -6   9 2058.53 187.973   2
 -16  -6   8 155.982 132.832   2
 -16   6   6 821.597 255.873   2
 -16   6   4 44313.0 567.940   2
 -16   6   2 1740.26 174.304   2
 -16   6   0 2818.03 144.449   2
 -16   6  -2 14208.2 206.797   2
 -16   6  -4 522.834 252.939   2
  16  -6   5 589.169 93.9183   2
  16  -6   7 4698.36 89.3914   2
  16  -6   9 8360.19 103.585   2
  16  -6  11 5982.10 118.783   2
  16  -6  13 130.485 80.3543   2
  16  -6  15 1064.92 124.040   2
  16  -6  16 8868.86 120.903   2
  16  -6  18 198.238 113.027   2
  16  -6  20 945.383 120.571   2
  16  -6  22 818.011 119.754   2
  16  -6  24 309.129 113.036   2
  16  -6  26 394.720 113.839   2
  16  -6  28 1393.13 149.005   2
 -16  -8  32 97.7465 161.862   2
 -16  -8  30 302.177 213.433   2
 -16  -8  28 367.913 113.290   2
 -16  -8  26 1585.40 291.610   2
 -16  -8  24 1977.46 294.170   2
 -16  -8  22 60.5567 293.244   2
 -16  -8  21 235.583 287.236   2
 -16  -8  19 1526.17 296.722   2
 -16  -8  17 2041.50 181.842   2
 -16  -8  15 438.590 157.797   2
 -16  -8  13 1859.97 151.712   2
 -16  -8  11 5756.65 169.734   2
 -16  -8  10-17.6482 176.851   2
 -16  -8   9 2865.83 216.090   2
 -16   8   8 924.207 192.366   2
 -16   8   6 115.989 272.942   2
  16  -8  -4 1099.71 205.124   2
 -16   8   2 4957.33 228.416   2
  16  -8   0 6990.54 362.439   2
  16  -8   2 285.876 131.418   2
  16  -8   5 3204.42 123.257   2
  16  -8   7 864.727 102.183   2
  16  -8   9 4861.49 124.624   2
  16  -8  11 2142.12 132.325   2
  16  -8  13 2479.32 133.067   2
  16  -8  16 5133.33 140.254   2
  16  -8  18 7012.35 154.202   2
  16  -8  20 763.430 124.286   2
  16  -8  22-0.01766 111.797   2
  16  -8  24 169.813 103.297   2
  16  -8  26 33.5650 83.3829   2
 -16 -10  28 3.75155 82.6338   2
 -16 -10  26 36.7659 109.026   2
 -16 -10  24 241.491 231.847   2
 -16 -10  22-60.2876 250.825   2
 -16 -10  21 29.0972 248.701   2
 -16 -10  19 662.646 272.017   2
 -16 -10  17 12.5742 267.750   2
 -16 -10  15-96.5281 252.841   2
  16 -10 -10 169.330 353.085   2
  16 -10  -8 4913.06 430.687   2
  16 -10  -6 919.985 346.805   2
  16 -10  -4 39.3930 345.156   2
  16 -10  -2 881.553 331.980   2
  16 -10   0 1416.47 316.838   2
  16 -10   2 1708.14 304.969   2
  16 -10   5 6574.03 180.951   2
  16 -10   7 119.259 191.967   2
  16 -10   9 987.555 197.853   2
 -16 -12  25 835.497 105.973   2
  16 -12   2 2884.10 242.106   2
  16 -12   5 11225.1 261.301   2
  16 -12   7 66.1218 186.336   2
  16 -14   0 472.660 176.284   2
  16 -14   2 5664.35 203.879   2
 -17  -1  36 2.39119 68.4832   2
 -17  -1  35 19.0901 83.4615   2
 -17  -1  34 61.7628 96.7657   2
 -17  -1  33 66.8562 147.130   2
 -17  -1  31 49.7565 217.004   2
 -17   1  29 18.3265 158.194   2
 -17   1  27 490.887 175.680   2
 -17   1  25 146.003 177.260   2
 -17  -1  24 907.085 135.964   2
  17  -1 -23 377.313 101.184   2
  17   1 -22 898.022 101.026   2
  17  -1 -20 233.823 98.5700   2
 -17  -1  18 340.342 90.6897   2
  17  -1 -16 2485.56 92.5336   2
  17  -1 -14 3142.41 125.772   2
  17  -1 -12 21567.3 200.409   2
  17  -1 -11 6675.28 178.894   2
  17  -1 -10 1306.38 127.326   2
  17  -1  -9 1067.18 257.740   2
  17  -1  -7 517.092 175.413   2
  17   1  -5 13194.3 246.263   2
  17   1  -3 3524.71 147.159   2
 -17  -1   1 1418.67 124.351   2
 -17  -1  -1 10353.7 161.274   2
 -17  -1  -3 23874.8 380.764   2
 -17  -1  -4 7961.32 162.005   2
 -17  -1  -6 27149.7 399.799   2
 -17  -1  -8 3767.08 178.125   2
  17   1  10 1149.05 68.8976   2
  17  -1  12 2695.20 61.6090   2
 -17   1 -14 2587.42 83.4040   2
  17  -1  15 187.303 67.3122   2
 -17   1 -17 5648.98 90.8672   2
  17   1  19 1231.92 87.3662   2
  17   1  21 1767.00 93.1102   2
  17   1  23 173.605 85.2911   2
  17   1  25 2145.26 98.0966   2
  17   1  28 1589.61 77.5186   2
  17  -1  30 52.9214 68.8550   2
 -17  -3  35 404.810 70.8600   2
 -17  -3  34 122.315 76.9663   2
 -17  -3  33-20.9360 112.615   2
 -17  -3  31 274.025 228.564   2
 -17  -3  29 33.7773 269.131   2
 -17  -3  27 871.505 276.675   2
 -17  -3  25 1190.12 275.146   2
 -17   3  23 669.364 147.522   2
  17  -3 -22 2148.83 160.230   2
 -17  -3  20 1017.02 133.112   2
 -17  -3  18 136.625 97.5647   2
  17  -3 -16 3370.92 126.914   2
 -17  -3  14 1487.42 113.969   2
  17  -3 -12 5490.69 170.641   2
  17  -3 -11 9782.00 190.327   2
 -17  -3  10 743.716 138.685   2
  17  -3  -9 524.734 263.925   2
  17  -3  -7 727.816 261.683   2
  17  -3  -5 261.818 264.709   2
 -17   3   3 92.1522 132.361   2
 -17   3   1 1466.37 125.778   2
 -17   3  -1 1087.93 105.401   2
 -17   3  -2 855.225 131.490   2
 -17   3  -3 1925.70 307.228   2
 -17   3  -4 1339.58 137.831   2
 -17  -3  -6 12328.2 232.217   2
  17  -3   8 1298.57 68.7496   2
  17  -3  10 1564.17 80.5575   2
  17  -3  12 158.744 69.1020   2
  17  -3  14 503.114 72.3602   2
  17  -3  15 110.059 66.7833   2
  17  -3  17 153.224 74.4634   2
  17   3  19 37.9491 78.3458   2
  17   3  21 19.4712 80.3549   2
  17   3  23 1673.15 90.4699   2
  17  -3  25 1537.30 117.281   2
  17  -3  27 621.503 186.510   2
  17  -3  28 1573.16 94.1033   2
  17  -3  30 327.240 78.3405   2
 -17  -5  34 40.3403 161.987   2
 -17  -5  33 174.544 74.2637   2
 -17  -5  31 65.7096 116.583   2
 -17  -5  29 81.9958 130.235   2
 -17  -5  27 2522.05 297.791   2
 -17  -5  25 1236.40 307.622   2
 -17  -5  23 2795.86 317.421   2
 -17  -5  22 703.486 272.362   2
 -17   5  20 1037.63 143.000   2
  17  -5 -18 45.6645 116.465   2
 -17  -5  16 1140.41 117.067   2
 -17   5  14 2057.40 119.449   2
 -17   5  12 3973.50 129.055   2
 -17  -5  11 13510.5 279.228   2
 -17  -5  10 394.768 124.490   2
  17  -5  -9 881.110 117.720   2
 -17   5   7 860.244 242.859   2
 -17   5   5 3739.77 278.437   2
 -17   5   3 2429.59 175.810   2
  17   5  -1 7850.79 158.031   2
 -17   5  -1 4369.24 150.480   2
 -17   5  -3 10311.0 394.147   2
  17  -5   4 352.115 97.4673   2
  17  -5   6 7323.03 96.9477   2
  17  -5   8 10377.8 100.908   2
  17  -5  10 6098.71 100.134   2
  17  -5  12 41.5264 75.4036   2
  17  -5  14 1054.83 115.746   2
  17  -5  15 223.121 86.8388   2
  17  -5  17 194.134 93.3958   2
  17  -5  19 983.864 102.637   2
  17  -5  21 177.328 120.184   2
  17  -5  23 2309.17 121.819   2
  17  -5  25 7608.47 133.724   2
  17  -5  27 54.0317 162.406   2
  17  -5  28 102.427 91.9237   2
 -17  -7  33 112.841 156.428   2
 -17  -7  31 57.8595 215.174   2
 -17  -7  29 0.88953 237.941   2
 -17  -7  27 112.670 123.258   2
 -17  -7  25 1354.83 307.659   2
 -17  -7  23 289.400 307.267   2
 -17  -7  22 1484.46 296.426   2
 -17  -7  20 631.659 271.991   2
 -17   7  18 736.929 200.738   2
 -17  -7  16 114.495 143.642   2
 -17   7  14 3255.83 160.705   2
 -17  -7  12 497.196 133.433   2
 -17  -7  11 57.9921 181.707   2
 -17   7   9 339.282 153.012   2
 -17   7   7 807.415 286.547   2
 -17   7   5 2917.20 297.513   2
  17  -7  -3 1453.57 117.879   2
  17  -7  -1 8299.74 146.508   2
  17  -7   1 71.8760 102.423   2
  17  -7   4 1990.67 102.597   2
  17  -7   6 9359.83 128.793   2
  17  -7   8 1929.21 99.4030   2
  17  -7  10 143.856 113.277   2
  17  -7  12 249.599 119.694   2
  17  -7  14 252.155 186.529   2
  17  -7  15 718.867 93.9485   2
  17  -7  17 2229.02 131.668   2
  17  -7  19 63.9703 126.092   2
  17  -7  21 20.9697 120.988   2
  17  -7  23 15.1507 115.736   2
  17  -7  25 153.530 104.644   2
 -17  -9  29 195.991 194.393   2
 -17  -9  27 1686.34 116.612   2
 -17  -9  25 281.815 259.419   2
 -17  -9  23 643.747 255.446   2
 -17  -9  22 391.133 253.947   2
 -17  -9  20 66.9792 264.529   2
 -17  -9  18 487.406 282.059   2
 -17  -9  16 145.397 277.621   2
 -17  -9  14 196.059 275.483   2
 -17   9  12 2285.11 393.055   2
  17  -9  -9 367.674 241.883   2
  17  -9  -7 1104.14 181.355   2
  17  -9  -5 1945.90 236.097   2
  17  -9  -3 248.324 320.992   2
  17  -9  -1 259.688 311.505   2
  17  -9   1 1669.23 297.533   2
  17  -9   4 481.077 169.261   2
  17  -9   6 239.194 109.586   2
  17  -9   8 10819.8 179.010   2
  17  -9  10 1392.47 132.383   2
  17  -9  12 635.671 128.771   2
  17  -9  15 1783.25 176.327   2
  17  -9  17 376.244 160.610   2
  17  -9  19 2157.30 164.176   2
  17  -9  21 854.262 142.946   2
  17  -9  23 163.111 128.292   2
 -17 -11  26 31.6299 100.660   2
 -17 -11  25 467.893 191.507   2
 -17 -11  24 1627.28 207.799   2
 -17 -11  23 88.1315 200.235   2
 -17 -11  22 70.7787 211.687   2
 -17 -11  20 103.494 227.126   2
  17 -11   4 424.550 212.342   2
  17 -11   6 4045.56 231.959   2
  17 -11   8 1126.26 186.090   2
  17 -13   1 356.720 205.509   2
  17 -13   4 2381.65 192.942   2
  17 -15  -5 314.415 150.360   2
  17 -15  -3 532.857 151.343   2
 -18   0  36 13.3029 91.8933   2
 -18   0  34 228.974 131.065   2
 -18   0  30 134.638 210.991   2
 -18   0  28 39.2831 236.314   2
 -18   0  26 41.1283 235.727   2
 -18   0  24 1106.36 272.816   2
  18   0 -12 2536.35 274.740   2
  18   0 -10 50.4658 236.159   2
  18   0  -8 934.479 254.216   2
  18   0  -6 1137.56 252.411   2
  18   0  -4 23452.3 423.502   2
 -18   0   2 407.310 180.712   2
 -18   0   0 23220.6 309.306   2
 -18   0  -2 31706.1 611.087   2
 -18   0 -14 27196.0 179.637   2
 -18   0 -16 307.985 104.587   2
  18   0  18 17483.7 177.311   2
  18   0  20 344.493 119.790   2
  18   0  22 453.675 124.982   2
  18   0  24 605.227 119.985   2
 -18  -2  35 29.8747 73.2274   2
 -18  -2  34-1.71697 89.2518   2
 -18  -2  32 56.2077 203.960   2
 -18  -2  30-46.9537 226.383   2
 -18  -2  28 181.425 270.554   2
 -18  -2  26 550.344 273.883   2
 -18   2  25 1054.03 181.473   2
 -18   2  24 85.8981 173.375   2
  18   2 -23 3035.11 160.294   2
  18  -2 -21 70.9141 115.550   2
  18  -2 -19 98.3421 105.923   2
  18  -2 -17 584.247 97.4020   2
  18  -2 -15 1098.67 98.3802   2
  18  -2 -13 77.0731 104.591   2
  18  -2 -11 1485.80 274.136   2
  18  -2 -10 4974.23 319.613   2
  18  -2  -8 1043.54 278.633   2
  18  -2  -6 772.660 173.637   2
  18   2  -4 4913.30 175.363   2
  18   2  -2 4495.98 157.088   2
 -18   2   0 126.474 102.297   2
 -18   2  -2 12887.2 193.704   2
 -18  -2  -3 11807.5 154.324   2
 -18  -2  -5 109.378 114.010   2
  18  -2   7 1348.23 94.9397   2
  18  -2   9 1503.77 80.5173   2
  18  -2  11 5237.32 72.6199   2
  18   2  13 2087.11 80.2862   2
  18  -2  14 706.565 69.9636   2
 -18  -2 -16 4334.39 87.2971   2
  18  -2  18 750.789 83.2766   2
  18   2  20 5131.09 98.1326   2
  18   2  22 539.779 86.7164   2
  18   2  24 15.2724 80.3316   2
  18  -2  27 875.577 97.9466   2
  18  -2  29 1261.29 78.9719   2
 -18  -4  34 2.35517 63.4551   2
 -18  -4  32 401.386 117.106   2
 -18  -4  30-0.44670 131.535   2
 -18  -4  28 190.822 270.330   2
 -18  -4  26 420.163 289.043   2
 -18  -4  25 276.862 296.599   2
 -18  -4  24 1022.52 302.985   2
 -18  -4  23 224.978 271.501   2
 -18   4  21 385.667 152.132   2
 -18   4  19 873.382 121.793   2
 -18   4  17 379.224 108.025   2
  18  -4 -15 816.554 114.140   2
  18  -4 -13 201.419 160.779   2
 -18  -4  11 636.846 201.715   2
  18  -4 -10 1324.44 170.961   2
  18  -4  -8 15764.1 305.076   2
 -18   4   6 17133.5 300.187   2
 -18   4   4 17396.7 302.173   2
  18   4  -2 2343.72 136.023   2
 -18   4   0 38337.0 269.045   2
 -18   4  -2 3786.58 328.561   2
 -18  -4  -3 1595.02 159.936   2
  18  -4   5 571.340 72.9054   2
  18  -4   7 3410.13 83.7339   2
  18  -4   9 1805.53 89.7361   2
  18  -4  11 672.686 73.9106   2
  18  -4  13 212.349 101.167   2
  18  -4  14 13.8374 80.1774   2
  18  -4  16 3683.52 103.735   2
  18  -4  18 9323.11 122.618   2
  18  -4  20 946.955 101.508   2
  18  -4  22 112.302 102.238   2
  18  -4  24 1098.47 120.882   2
  18  -4  26 160.790 170.236   2
  18  -4  27 160.071 88.9624   2
  18  -4  29 207.970 75.5473   2
 -18  -6  32 57.5573 194.464   2
 -18  -6  30 46.0498 226.780   2
 -18  -6  28 11.9477 263.227   2
 -18  -6  26 1154.63 306.496   2
 -18  -6  25 118.703 281.248   2
 -18  -6  24 64.7444 299.266   2
 -18  -6  23 576.949 282.727   2
 -18  -6  21 136.313 277.508   2
 -18   6  19 93.0298 188.303   2
 -18   6  17 257.747 187.027   2
 -18   6  15 6238.30 235.379   2
 -18   6  13 2985.72 209.787   2
 -18   6  10 1932.45 187.360   2
 -18   6   8 437.521 136.532   2
 -18   6   6 1067.50 264.174   2
  18  -6  -4 1445.40 132.527   2
  18  -6  -2 254.280 121.841   2
 -18   6   0 13790.6 148.811   2
 -18   6  -2 1356.09 309.087   2
  18  -6   3 3091.78 109.486   2
  18  -6   5 537.912 95.4088   2
  18  -6   7 813.117 87.2744   2
  18  -6   9 296.781 90.8150   2
  18  -6  11 884.918 105.279   2
  18  -6  13 894.744 121.427   2
  18  -6  14 7852.31 116.431   2
  18  -6  16 114.143 90.7232   2
  18  -6  18 631.909 99.2579   2
  18  -6  20 568.662 113.463   2
  18  -6  22 590.569 115.023   2
  18  -6  24 284.637 115.038   2
  18  -6  26 115.973 150.136   2
  18  -6  27 212.883 84.3292   2
 -18  -8  30 154.378 192.981   2
 -18  -8  28 40.5531 233.709   2
 -18  -8  26-56.7266 271.660   2
 -18  -8  25 123.632 261.782   2
 -18  -8  24 34.5224 281.383   2
 -18  -8  23 217.317 285.469   2
 -18  -8  21 233.951 279.619   2
 -18  -8  19 180.438 261.751   2
 -18  -8  17 117.785 278.455   2
 -18   8  15 1198.43 221.689   2
 -18   8  13 3401.11 232.844   2
 -18   8  10 1032.82 208.959   2
 -18   8   8 1120.58 225.945   2
 -18   8   6 992.787 290.538   2
 -18   8   4 3962.89 241.374   2
  18  -8  -2 94.1002 125.759   2
  18  -8   0 98.0694 137.234   2
  18  -8   3 611.279 120.511   2
  18  -8   5 325.964 116.492   2
  18  -8   7 205.931 107.118   2
  18  -8   9 2802.56 149.518   2
  18  -8  11 7752.39 161.267   2
  18  -8  13 3565.91 211.860   2
  18  -8  14 9163.66 163.284   2
  18  -8  16 10312.5 235.070   2
  18  -8  18 202.929 166.731   2
  18  -8  20 329.240 110.073   2
  18  -8  22 950.125 108.596   2
  18  -8  24 152.727 122.205   2
 -18 -10  28 21.1208 158.359   2
 -18 -10  26 934.573 102.328   2
 -18 -10  25 510.785 218.769   2
 -18 -10  24 6.09250 219.874   2
 -18 -10  23-103.068 225.731   2
 -18 -10  21-58.7673 241.015   2
 -18 -10  19 122.543 256.975   2
 -18 -10  17 546.992 254.482   2
 -18  10   6 1381.33 285.707   2
 -18  10   4 3622.69 319.856   2
  18 -10   3 3370.40 244.586   2
  18 -10   5 4688.05 251.471   2
  18 -10   7 2545.73 227.747   2
  18 -10   9 541.361 191.487   2
  18 -10  11 603.286 166.064   2
 -18 -12  24 71.8818 101.701   2
  18 -12   0 337.272 224.885   2
  18 -12   3 3596.56 228.178   2
  18 -12   5 1029.26 203.516   2
  18 -12   7 1580.37 177.464   2
  18 -14  -4-46.6393 168.175   2
  18 -14  -2-15.2912 172.197   2
  18 -14   0 1609.69 184.881   2
 -19  -1  35 33.0256 74.0356   2
 -19  -1  33 97.5907 143.734   2
 -19  -1  31 95.6241 207.176   2
 -19   1  29 413.233 159.952   2
 -19   1  27 350.905 177.048   2
 -19   1  26 2395.49 189.839   2
 -19   1  25 14.4129 178.836   2
 -19   1  24 129.778 184.302   2
  19  -1 -22 1259.24 134.640   2
  19  -1 -20 229.560 126.490   2
  19  -1 -18 1953.60 127.451   2
  19  -1 -16 1459.06 117.500   2
  19  -1 -14 1705.35 118.726   2
  19   1 -13 6214.23 222.328   2
  19  -1 -12 1174.16 133.621   2
  19  -1 -11 853.153 174.061   2
  19   1  -9 9886.70 247.413   2
  19   1  -7 6624.49 222.746   2
  19   1  -5 36.2934 163.933   2
 -19   1   3 188.746 140.758   2
 -19  -1   1 1577.48 131.568   2
 -19   1   0 117.149 307.800   2
 -19  -1  -1 3917.46 274.791   2
 -19  -1  -2 4412.37 163.929   2
 -19  -1  -4 8599.05 305.181   2
  19   1   6 1082.55 81.0274   2
  19   1   8 2468.09 70.6742   2
  19   1  10 9301.92 81.8962   2
  19   1  12 1287.60 77.6143   2
  19   1  13 630.286 70.7363   2
 -19  -1 -15 3146.54 85.1556   2
  19   1  17 11.1813 80.6218   2
  19   1  19 98.7841 83.2065   2
  19   1  21 497.546 87.1014   2
  19   1  23 3351.93 91.8354   2
  19   1  26 4113.78 87.3636   2
  19  -1  28 496.828 80.1839   2
 -19  -3  33 21.6250 102.913   2
 -19  -3  31 8.93785 227.407   2
 -19  -3  29 56.4251 260.256   2
 -19  -3  27 180.251 296.667   2
 -19  -3  26 2020.28 310.744   2
 -19  -3  25-149.856 288.879   2
 -19  -3  24 360.428 293.749   2
 -19   3  22 155.116 181.607   2
  19  -3 -20 149.440 138.022   2
 -19  -3  18 1951.18 143.071   2
 -19  -3  16 907.750 130.434   2
 -19  -3  14 1881.46 130.980   2
  19  -3 -13 147.980 250.843   2
  19  -3 -12 5585.18 327.681   2
  19  -3 -11 6253.64 193.261   2
  19  -3  -9 1281.26 300.039   2
  19  -3  -7 7299.86 356.965   2
  19  -3  -5 1623.43 173.230   2
 -19   3   3 90.7659 111.719   2
  19   3  -1 1002.43 123.009   2
 -19  -3  -1 6354.25 174.162   2
 -19  -3  -2 3348.99 168.065   2
  19  -3   4 9633.26 113.013   2
  19  -3   6 2895.53 75.1554   2
  19   3   8 922.330 84.1921   2
  19  -3  10 4436.39 85.1297   2
 -19  -3 -12 1200.57 101.709   2
  19  -3  13 1168.12 72.9282   2
  19  -3  15 983.842 74.6079   2
  19  -3  17 1921.67 83.4771   2
  19   3  19 1049.55 83.8095   2
  19  -3  21 2704.93 111.247   2
  19  -3  23 807.590 104.131   2
  19  -3  26 2697.35 104.532   2
  19  -3  28 86.7992 74.9099   2
 -19  -5  33-25.5559 176.327   2
 -19  -5  31 336.349 106.769   2
 -19  -5  29 972.303 129.967   2
 -19  -5  27 161.767 296.772   2
 -19  -5  26-45.7247 289.117   2
 -19  -5  25-35.3034 295.213   2
 -19  -5  24 1517.98 324.299   2
 -19  -5  22 1999.27 318.499   2
 -19   5  20 1334.45 199.682   2
 -19   5  18 2394.32 174.608   2
 -19   5  16 212.332 151.371   2
  19  -5 -14 1188.42 156.133   2
  19  -5 -13 114.558 277.009   2
 -19   5  12 417.640 265.812   2
 -19   5  11 2199.07 156.828   2
 -19   5   9 137.720 132.092   2
 -19   5   7 6341.20 188.969   2
 -19   5   5 1850.61 132.603   2
  19  -5  -3 825.248 98.3533   2
  19  -5  -1 369.503 105.105   2
 -19   5   0 2684.18 317.978   2
 -19   5  -1 815.895 297.835   2
  19  -5   2 67.6624 88.1227   2
  19  -5   4 738.524 91.9159   2
  19  -5   6 2565.31 88.4262   2
  19  -5   8 529.434 85.3724   2
  19  -5  10 2828.12 107.679   2
  19  -5  12 81.0096 138.401   2
  19  -5  13 68.1780 94.0202   2
  19  -5  15 524.249 91.3073   2
  19  -5  17 783.226 97.1331   2
  19  -5  19 119.878 97.8020   2
  19  -5  21 1996.35 121.969   2
  19  -5  23 3174.86 122.185   2
  19  -5  25 71.6360 174.029   2
  19  -5  26 9.42040 98.7262   2
 -19  -7  31 45.2183 186.050   2
 -19  -7  29 52.9300 225.803   2
 -19  -7  27 550.032 279.344   2
 -19  -7  26 1519.80 300.833   2
 -19  -7  25 75.3972 269.980   2
 -19  -7  24 497.820 307.266   2
 -19  -7  22 801.807 281.389   2
 -19  -7  20 1111.04 305.993   2
 -19  -7  18 1553.04 303.950   2
 -19   7  16 1114.68 212.713   2
 -19   7  14 225.139 202.289   2
 -19   7  11 2937.75 233.833   2
 -19   7   9 1466.91 163.325   2
 -19   7   7 747.289 195.921   2
 -19   7   5 2671.17 307.152   2
  19  -7  -3 771.052 122.951   2
  19  -7  -1 550.206 120.100   2
  19  -7   2 275.291 111.693   2
  19  -7   4 7692.96 137.434   2
  19  -7   6 3911.61 107.919   2
  19  -7   8 1796.49 113.897   2
  19  -7  10 5649.92 146.218   2
  19  -7  12 215.220 154.078   2
  19  -7  13 2145.78 140.975   2
  19  -7  15 675.101 131.818   2
  19  -7  17 13.1972 94.9224   2
  19  -7  19 47.6263 116.741   2
  19  -7  21 386.646 112.043   2
  19  -7  23 146.155 102.282   2
 -19  -9  29 268.613 179.432   2
 -19  -9  27 77.4543 205.883   2
 -19  -9  26 66.9351 224.562   2
 -19  -9  25 653.900 243.512   2
 -19  -9  24 1012.96 267.326   2
 -19  -9  22 91.4747 243.013   2
 -19  -9  20 177.399 263.228   2
 -19  -9  18 89.5801 272.740   2
 -19  -9  16 466.651 266.163   2
 -19  -9  14 106.903 275.603   2
 -19   9   9 3008.77 273.499   2
  19  -9  -7 1690.25 187.998   2
  19  -9  -5 471.841 180.697   2
  19  -9  -3 192.914 298.003   2
  19  -9  -1 1586.34 314.420   2
  19  -9   2 78.5406 127.070   2
  19  -9   4 996.601 117.204   2
  19  -9   6 531.460 137.215   2
  19  -9   8 4144.51 154.109   2
  19  -9  10 589.179 135.045   2
  19  -9  12 1489.35 191.505   2
  19  -9  13 6297.57 148.560   2
  19  -9  14 3199.20 188.257   2
  19  -9  15 589.191 166.536   2
  19  -9  17-14.0645 155.679   2
  19  -9  19 1284.13 153.405   2
  19  -9  21 187.917 132.002   2
 -19 -11  25 61.6262 96.8938   2
 -19  11   3 3539.57 305.041   2
  19 -11   2 469.684 230.788   2
  19 -11   4 2427.72 227.310   2
  19 -11   6-13.6718 201.856   2
  19 -11   8 45.0330 179.896   2
  19 -11  10 2472.66 171.820   2
  19 -13  -1 71.5517 201.475   2
  19 -13   2 2307.02 209.905   2
  19 -13   4 1345.46 176.554   2
  19 -15 -13 42.8555 98.9600   2
  19 -15 -12 179.726 107.748   2
  19 -15 -11 106.689 115.383   2
  19 -15  -9 78.8038 122.350   2
  19 -15  -7 16.2141 127.762   2
  19 -15  -5 314.181 141.412   2
  19 -15  -3 50.2850 127.328   2
 -20   0  34 34.8230 118.027   2
 -20   0  30 47.0986 202.051   2
 -20   0  28 1215.23 252.885   2
 -20   0  26 1150.27 274.607   2
  20   0 -14 1673.94 270.960   2
  20   0 -12 2956.25 171.123   2
  20   0 -10 565.503 247.938   2
  20   0  -8 3788.74 282.812   2
  20   0  -6 11814.4 363.415   2
  20   0  -4 797.580 244.259   2
 -20   0   2 6992.95 246.305   2
 -20   0   0 51531.7 813.130   2
  20   0  12 9806.25 134.047   2
  20   0  14 656.577 101.928   2
  20   0  16 1082.32 122.373   2
  20   0  18 2886.17 131.390   2
  20   0  20 11121.9 162.231   2
  20   0  22 4781.51 137.785   2
 -20   2  35 65.6817 91.4616   2
 -20  -2  34-9.07812 76.6860   2
 -20  -2  32 203.187 193.330   2
 -20  -2  30 81.4404 227.735   2
 -20  -2  28 62.0874 262.073   2
 -20  -2  27 1513.72 298.363   2
 -20   2  26-66.0856 173.183   2
 -20  -2  25 1059.08 188.615   2
 -20  -2  23 823.303 186.988   2
  20   2 -21 141.274 123.109   2
  20  -2 -19 2157.73 136.105   2
  20  -2 -17 1477.89 145.773   2
  20  -2 -15 377.810 136.814   2
  20  -2 -14-61.6455 166.372   2
  20  -2 -13 2342.39 181.720   2
  20   2 -12 120.125 135.317   2
  20   2 -10 25.5994 130.049   2
  20  -2  -8 5.98958 170.182   2
  20   2  -6 4287.92 207.290   2
  20   2  -4 1257.80 170.186   2
 -20   2   2 132.574 134.343   2
 -20   2   1 737.612 333.934   2
 -20  -2   0 488.613 246.514   2
 -20  -2  -1 16793.6 242.530   2
  20  -2   3 10363.1 113.894   2
  20   2   5 530.868 73.2917   2
  20   2   7 719.929 68.9419   2
  20   2   9 754.531 64.1767   2
 -20  -2 -11 3868.23 83.5957   2
  20  -2  12 394.333 67.9886   2
  20  -2  14 1444.52 79.2884   2
  20   2  16 3867.12 90.6805   2
  20   2  18 3179.20 91.0549   2
  20   2  20 45.0713 83.4808   2
  20   2  22 382.683 80.9174   2
  20  -2  24 1760.42 233.043   2
  20  -2  25 1406.51 104.021   2
  20  -2  27 178.325 80.9304   2
 -20  -4  32 103.922 100.265   2
 -20  -4  30 422.287 248.634   2
 -20  -4  28 294.168 270.653   2
 -20  -4  27-5.24103 293.271   2
 -20  -4  26 707.487 291.002   2
 -20  -4  25 653.789 290.137   2
 -20  -4  23-37.7723 300.199   2
 -20  -4  21 293.834 285.405   2
  20  -4 -19 29.9194 146.397   2
 -20   4  17 67.5431 143.225   2
 -20   4  15 317.838 121.555   2
  20  -4 -14 5275.01 180.233   2
  20  -4 -13 2886.00 211.989   2
  20  -4 -12 36.2588 142.758   2
  20  -4 -10 3498.35 170.090   2
 -20   4   8 313.827 123.858   2
  20  -4  -6 50.8820 104.447   2
 -20   4   4 3577.94 121.117   2
 -20   4   2 2416.64 105.445   2
 -20   4   1 2005.47 338.484   2
 -20   4   0 601.566 312.197   2
  20  -4   1 762.552 95.0089   2
  20  -4   3 1010.69 86.0732   2
  20  -4   5 7755.26 98.1744   2
  20  -4   7 3125.45 96.1536   2
  20  -4   9 344.905 91.2386   2
  20  -4  11 397.726 112.149   2
  20  -4  12 1198.61 96.3110   2
  20  -4  14 7179.18 111.124   2
  20  -4  16 1777.07 101.168   2
  20  -4  18 88.9648 94.8484   2
  20  -4  20 3725.67 116.175   2
  20  -4  22 4938.82 112.206   2
  20  -4  25 3.28687 90.1093   2
  20  -4  27 181.860 85.8959   2
 -20  -6  32 20.1711 168.393   2
 -20  -6  30 52.7093 227.841   2
 -20  -6  28 575.428 261.240   2
 -20  -6  27 827.707 288.600   2
 -20  -6  26 226.118 296.298   2
 -20  -6  25-77.9481 296.443   2
 -20  -6  23 1500.10 318.305   2
 -20  -6  21 692.485 296.092   2
 -20  -6  19 1532.03 298.024   2
 -20   6  17 178.248 188.431   2
 -20   6  15 7126.04 253.916   2
 -20   6  13 87.8527 276.250   2
 -20   6  12 413.070 193.460   2
 -20   6  10 1577.71 197.470   2
 -20   6   8 354.801 142.838   2
 -20   6   6 174.050 173.562   2
  20  -6  -4 1315.26 139.646   2
 -20   6   2 5103.39 141.298   2
 -20   6   0 3447.13 357.200   2
  20  -6   1 6288.63 121.821   2
  20  -6   3 4485.81 117.414   2
  20  -6   5 958.275 104.732   2
  20  -6   7 426.539 96.4888   2
  20  -6   9 1151.46 116.998   2
  20  -6  11 472.575 106.807   2
  20  -6  12 3580.41 143.594   2
  20  -6  14 197.647 110.925   2
  20  -6  16 151.756 94.7591   2
  20  -6  18 119.994 97.9665   2
  20  -6  20 277.926 121.603   2
  20  -6  22 408.763 114.923   2
  20  -6  24 176.255 145.134   2
  20  -6  25 182.761 87.5366   2
 -20  -8  30-93.6614 171.664   2
 -20  -8  28-40.5573 222.420   2
 -20  -8  27 19.6118 236.842   2
 -20  -8  26 206.507 253.454   2
 -20  -8  25 2305.28 284.613   2
 -20  -8  23 573.037 293.163   2
 -20  -8  21-98.5922 263.300   2
 -20  -8  19 95.7975 266.635   2
 -20  -8  17 459.834 276.805   2
 -20  -8  15 630.839 290.337   2
 -20   8  12 1405.61 221.869   2
 -20   8  10 96.7378 210.014   2
 -20   8   8 43.8593 223.187   2
  20  -8  -6 778.926 178.953   2
  20  -8  -4 695.418 204.174   2
  20  -8  -2 129.735 125.946   2
  20  -8   1 155.396 121.160   2
  20  -8   3 3040.37 136.775   2
  20  -8   5 456.072 124.224   2
  20  -8   7 40.7964 139.600   2
  20  -8   9 1282.68 147.989   2
  20  -8  11 7051.36 169.631   2
  20  -8  12 6803.43 169.207   2
  20  -8  14 2282.39 144.386   2
  20  -8  16 548.899 124.964   2
  20  -8  18 3270.41 182.371   2
  20  -8  20 2554.23 160.461   2
  20  -8  22 433.926 130.624   2
 -20 -10  26-181.868 178.789   2
 -20 -10  25 1645.21 207.465   2
 -20 -10  23-54.5657 214.302   2
 -20 -10  21-147.384 237.149   2
 -20 -10  19 1248.52 257.665   2
 -20 -10  17 69.8044 255.317   2
 -20  10   6 3089.68 320.401   2
 -20  10   4 1190.76 323.287   2
  20 -10   1 73.7539 234.726   2
  20 -10   3 2814.14 250.449   2
  20 -10   5 5306.23 258.389   2
  20 -10   7 1581.56 214.493   2
  20 -10   9-9.07627 197.830   2
  20 -10  11 62.6412 119.629   2
  20 -10  12 2125.43 125.688   2
  20 -10  14 1093.57 162.269   2
  20 -12  -2 1282.55 228.481   2
  20 -12   1 2782.86 183.653   2
  20 -12   3 1213.16 211.231   2
  20 -12   5 2256.92 198.917   2
  20 -12   7 1024.11 170.492   2
  20 -14  -8 81.4559 154.379   2
  20 -14  -6 153.253 152.022   2
  20 -14  -4 136.252 166.386   2
  20 -14  -2 284.522 161.933   2
  20 -14   1-95.0433 155.761   2
 -21  -1  31 36.8073 196.906   2
 -21   1  29 51.8710 151.837   2
 -21   1  28 271.190 163.394   2
 -21   1  27 544.266 180.596   2
 -21   1  26 360.358 183.918   2
 -21  -1  24 17.6373 190.778   2
 -21  -1  22 176.941 185.483   2
  21  -1 -20 89.7367 130.936   2
  21   1 -18 1698.32 137.412   2
  21  -1 -16 430.325 128.365   2
  21   1 -15 4569.40 175.536   2
  21  -1 -14 772.409 123.629   2
  21  -1 -13 77.8635 120.085   2
  21   1 -11 16438.9 218.452   2
  21   1  -9 162.983 182.002   2
  21   1  -7 1240.46 187.403   2
  21  -1  -5 773.733 181.261   2
 -21   1   3 3797.29 178.245   2
 -21  -1   1 152.409 250.836   2
  21   1   0 512.611 161.836   2
  21  -1   2 262.998 93.1183   2
  21   1   4 172.612 69.7552   2
  21   1   6 13117.0 95.6856   2
  21   1   8 13767.1 92.3205   2
 -21  -1 -10 1588.42 79.2248   2
  21  -1  11 5524.47 82.7083   2
  21  -1  13 326.371 78.7929   2
  21  -1  15 541.725 79.7005   2
  21   1  17 232.432 84.0796   2
  21   1  19 611.917 85.8943   2
  21   1  21 368.811 82.5711   2
  21   1  24 2066.61 78.3375   2
  21  -1  26 451.341 82.0918   2
  21   1  28 589.224 90.1594   2
 -21  -3  33 52.2045 91.1498   2
 -21  -3  31 121.908 213.782   2
 -21  -3  29 20.3434 248.612   2
 -21  -3  28 32.4676 274.821   2
 -21  -3  27 203.699 284.350   2
 -21  -3  26-69.9759 291.918   2
 -21  -3  24 276.877 304.511   2
 -21  -3  22-3.51500 171.329   2
  21  -3 -20 424.828 125.383   2
  21  -3 -18 158.025 139.190   2
  21  -3 -16 80.8365 136.346   2
  21  -3 -15 1247.25 277.962   2
  21  -3 -14 5922.18 206.177   2
  21  -3 -13 284.312 139.372   2
  21  -3 -11 1671.86 152.023   2
  21   3  -9 4269.70 139.044   2
  21  -3  -7 792.316 139.485   2
  21   3  -5 480.232 98.6848   2
  21  -3  -3 796.812 85.2528   2
  21  -3  -2 5849.79 170.019   2
 -21   3   1 1722.74 350.869   2
  21  -3   0 267.397 105.936   2
  21   3   2 361.222 77.5623   2
  21  -3   4 3760.75 88.7432   2
  21  -3   6 5123.95 99.2234   2
  21  -3   8 11337.4 121.593   2
 -21  -3 -10 3619.73 125.992   2
  21  -3  11 4148.35 107.167   2
  21  -3  12 883.464 158.667   2
  21  -3  13 1348.56 94.2440   2
  21  -3  15 310.772 75.7419   2
  21  -3  17 99.1493 96.0803   2
  21  -3  19 207.677 99.7672   2
  21  -3  21 786.421 98.2144   2
  21  -3  23 935.637 222.858   2
  21  -3  24 1449.64 101.240   2
  21  -3  26 532.769 83.4243   2
 -21  -5  33 47.8105 153.408   2
 -21  -5  31 17.3261 201.351   2
 -21  -5  29-1.48042 111.775   2
 -21  -5  28 241.355 266.771   2
 -21  -5  27 2984.60 300.778   2
 -21  -5  26 420.327 280.812   2
 -21  -5  24 149.679 318.742   2
 -21  -5  22-1.06474 298.647   2
 -21  -5  20 207.700 299.664   2
 -21   5  18 699.246 159.405   2
 -21   5  16 772.629 155.591   2
  21  -5 -15 721.317 193.082   2
 -21   5  14 263.483 191.740   2
 -21   5  13 2221.01 195.069   2
 -21   5  11 5879.59 225.185   2
 -21   5   9 1051.35 147.138   2
 -21   5   7 1468.86 120.815   2
  21  -5  -5 555.484 101.486   2
  21  -5  -3 1574.17 113.410   2
 -21   5   1 537.064 314.213   2
  21  -5   0 118.472 101.326   2
  21  -5   2 2758.33 112.803   2
  21  -5   4 2325.49 100.559   2
  21  -5   6 2907.25 106.778   2
  21  -5   8 2639.11 108.034   2
  21  -5  10 1455.13 129.252   2
  21  -5  11 2598.23 134.262   2
  21  -5  13 842.705 112.536   2
  21  -5  15 409.644 95.0876   2
  21  -5  17 422.590 95.9172   2
  21  -5  19 630.357 100.476   2
  21  -5  21 152.905 107.071   2
  21  -5  24 62.3491 98.1280   2
  21  -5  26 88.3976 108.154   2
 -21  -7  31-0.42859 165.952   2
 -21  -7  29 71.3472 216.595   2
 -21  -7  28-25.8139 237.253   2
 -21  -7  27 108.135 246.897   2
 -21  -7  26 57.3777 251.145   2
 -21  -7  24 47.5305 284.536   2
 -21  -7  22 1286.70 294.586   2
 -21  -7  20 1077.44 311.562   2
 -21  -7  18 18.5523 293.142   2
 -21  -7  16 301.955 286.787   2
 -21   7  14 6261.03 411.093   2
 -21   7  13 1329.72 230.325   2
 -21   7  11 526.588 207.854   2
 -21   7   9 382.528 162.166   2
 -21   7   7 857.348 164.117   2
 -21   7   5 285.644 267.699   2
  21  -7  -3 694.017 131.146   2
  21  -7   0 229.221 117.419   2
  21  -7   2 1444.70 125.808   2
  21  -7   4 2312.56 131.102   2
  21  -7   6 1915.30 128.834   2
  21  -7   8 3040.43 146.206   2
  21  -7  10 4339.77 155.496   2
  21  -7  11 1843.40 147.059   2
  21  -7  13 501.445 135.460   2
  21  -7  15 360.481 131.110   2
  21  -7  17 253.751 124.559   2
  21  -7  19 680.858 164.991   2
  21  -7  21 210.206 146.140   2
  21  -7  24 1168.53 113.107   2
 -21  -9  28 192.457 168.638   2
 -21  -9  27 117.349 193.805   2
 -21  -9  26 367.821 212.279   2
 -21  -9  24-8.83540 225.447   2
 -21  -9  22 80.8810 254.952   2
 -21  -9  20 1000.74 274.750   2
 -21  -9  18 170.808 271.094   2
 -21  -9  16 38.2321 274.550   2
 -21  -9  13 163.013 275.489   2
 -21   9   7 94.1453 320.853   2
 -21   9   5 1431.09 314.431   2
  21  -9   0 28.5733 139.044   2
  21  -9   2-9.12491 141.762   2
  21  -9   4 5610.01 169.660   2
  21  -9   6 468.255 141.611   2
  21  -9   8 243.321 139.514   2
  21  -9  10 245.735 134.384   2
  21  -9  11 9031.81 166.260   2
  21  -9  13 2504.57 136.710   2
  21  -9  15 230.105 161.612   2
  21  -9  17 3002.79 167.236   2
  21  -9  19 120.918 131.772   2
 -21  11   3 968.643 299.639   2
  21 -11  -2 898.858 226.205   2
  21 -11   0 307.317 224.439   2
  21 -11   2 283.347 233.378   2
  21 -11   4 490.785 208.870   2
  21 -11   6 87.8809 195.151   2
  21 -11   8 976.217 183.225   2
  21 -11  10 932.038 154.793   2
  21 -13  -5 86.8110 180.077   2
  21 -13  -3 520.964 193.920   2
  21 -13   0 57.2741 188.949   2
  21 -13   2 2059.35 189.110   2
  21 -13   4 2151.50 174.822   2
  21 -15  -9 38.9830 103.048   2
  21 -15  -7-60.8382 108.756   2
  21 -15  -5 106.145 113.333   2
 -22   0  34 116.392 99.8277   2
 -22   0  30 127.420 195.953   2
 -22   0  28 242.135 227.652   2
  22   0 -16 7895.53 233.016   2
  22   0 -14 1895.98 189.871   2
  22   0 -12 3215.30 195.281   2
  22   0 -10 673.960 258.448   2
  22   0  -8 841.932 252.430   2
  22   0  -6 1448.30 170.242   2
  22   0  -4 2968.86 137.608   2
 -22   0   2 33840.7 743.067   2
  22   0  10 3497.12 111.362   2
  22   0  12 5383.14 128.464   2
  22   0  14 7558.73 144.832   2
  22   0  16 589.695 120.561   2
  22   0  18 6708.19 147.217   2
  22   0  20 224.247 118.292   2
  22   0  22 3767.15 167.161   2
 -22   2  34-31.0152 96.3643   2
 -22  -2  33 89.2609 151.116   2
 -22  -2  32-101.878 176.546   2
 -22  -2  30-23.6837 221.389   2
 -22  -2  29 304.164 253.164   2
 -22  -2  28 9.03865 239.072   2
 -22  -2  27 241.041 271.971   2
 -22   2  26-8.68217 222.214   2
 -22   2  25 306.829 184.239   2
 -22  -2  23 46.4731 183.252   2
 -22  -2  21 1508.63 198.467   2
 -22   2  19 1085.36 135.965   2
  22   2 -17 778.298 127.301   2
  22   2 -16 26.6157 148.120   2
  22   2 -15 2173.20 156.730   2
  22   2 -14 1289.03 127.694   2
  22   2 -12 737.206 153.490   2
  22  -2 -10 1433.55 149.852   2
  22   2  -8 1549.92 149.969   2
  22  -2  -6 386.838 84.8085   2
  22  -2  -4 318.072 90.7766   2
  22  -2  -3 2688.96 162.093   2
 -22   2   2 351.647 181.561   2
  22  -2  -1 1856.29 97.8585   2
  22   2   1 2511.21 74.4935   2
  22   2   3 3832.34 77.2389   2
  22   2   5 18123.2 110.083   2
  22  -2   7 11778.9 100.621   2
  22   2   9 72.6683 85.2117   2
  22  -2  10 174.692 96.8073   2
  22  -2  12 985.866 78.5934   2
  22  -2  14 5048.06 91.0896   2
  22  -2  16 441.755 81.2917   2
  22   2  18 192.913 81.5880   2
  22   2  20 1190.70 81.7578   2
  22   2  22 511.361 102.560   2
  22  -2  23 4848.49 103.982   2
  22  -2  25 606.567 86.6868   2
 -22  -4  33 60.4050 151.510   2
 -22  -4  32 56.5154 178.674   2
 -22  -4  31 82.0808 112.258   2
 -22  -4  30 199.231 110.743   2
 -22  -4  29 12.5270 246.959   2
 -22  -4  28 20.1503 258.815   2
 -22  -4  27 226.331 258.891   2
 -22  -4  25 21.2433 286.612   2
 -22  -4  23 17.5959 290.004   2
 -22  -4  21 209.096 297.819   2
 -22  -4  19 1319.31 292.530   2
 -22   4  17 149.011 124.557   2
 -22   4  16 879.864 193.558   2
  22  -4 -15 176.109 138.471   2
 -22   4  14 280.899 124.879   2
 -22   4  12 1049.98 151.924   2
 -22   4  10 1645.73 132.599   2
 -22   4   8 3807.82 133.914   2
 -22   4   6 3508.16 121.995   2
  22   4  -4 84.6913 86.8961   2
  22  -4  -3 281.560 166.444   2
 -22   4   2 1177.08 376.976   2
  22  -4  -1 199.541 112.140   2
  22  -4   1 4393.44 114.210   2
  22  -4   3 50.0302 87.9269   2
  22  -4   5 1248.52 96.3296   2
  22  -4   7 51.5006 95.2723   2
 -22  -4  -9 3595.05 134.740   2
  22  -4  10 183.897 123.013   2
  22  -4  12 11658.2 145.364   2
  22  -4  14 1089.37 96.1491   2
  22  -4  16 129.797 90.9021   2
  22  -4  18 5279.55 113.766   2
  22  -4  20 752.241 97.5879   2
  22  -4  22 334.352 157.180   2
  22  -4  23 105.281 92.6676   2
  22  -4  25 324.469 88.7535   2
 -22  -6  32 99.6585 148.156   2
 -22  -6  30-76.8964 203.801   2
 -22  -6  29 43.5744 212.996   2
 -22  -6  28 67.1603 245.371   2
 -22  -6  27-92.0728 255.558   2
 -22  -6  25 489.781 288.846   2
 -22  -6  23 31.8766 299.010   2
 -22  -6  21 1891.72 331.472   2
 -22  -6  19 117.093 303.974   2
 -22  -6  17 758.945 287.106   2
 -22  -6  16 640.539 269.366   2
 -22   6  15 1328.58 315.030   2
 -22   6  14 233.685 203.991   2
 -22   6  12 271.343 188.531   2
 -22   6  10 272.941 186.708   2
 -22   6   8 118.845 126.365   2
 -22   6   6 409.723 179.905   2
  22  -6  -4 143.016 121.680   2
  22  -6  -1 2748.97 131.206   2
  22  -6   1 1577.37 127.869   2
  22  -6   3 232.679 114.377   2
  22  -6   5 6197.89 134.848   2
  22  -6   7 7047.86 143.895   2
  22  -6   9 1386.67 147.852   2
  22  -6  10 926.537 133.257   2
  22  -6  12 2256.13 136.198   2
  22  -6  14 1033.12 136.191   2
  22  -6  16 472.131 135.077   2
  22  -6  18 2744.64 146.264   2
  22  -6  20 1453.65 168.961   2
  22  -6  23 304.639 126.048   2
 -22  -8  29 58.3208 169.974   2
 -22  -8  28 5.52454 191.757   2
 -22  -8  27 244.273 219.136   2
 -22  -8  25 193.709 232.130   2
 -22  -8  23 17.3641 253.054   2
 -22  -8  21 2118.96 305.356   2
 -22  -8  19 256.649 295.499   2
 -22  -8  17 979.223 303.633   2
 -22  -8  14 449.062 288.645   2
 -22  -8  12 3202.49 292.736   2
 -22  -8  10 236.384 273.502   2
 -22   8   8 125.137 300.365   2
  22  -8  -6 1173.30 187.618   2
  22  -8  -4 669.416 222.998   2
  22  -8  -1-5.82489 124.671   2
  22  -8   1 5933.88 172.139   2
  22  -8   3 520.018 145.838   2
  22  -8   5 221.257 146.734   2
  22  -8   7 261.370 143.752   2
  22  -8   9 5306.59 172.556   2
  22  -8  10 928.050 155.081   2
  22  -8  12 1953.10 145.191   2
  22  -8  14 1058.04 128.736   2
  22  -8  16 1247.20 123.211   2
  22  -8  18 132.150 147.550   2
  22  -8  20 1857.34 146.591   2
 -22 -10  25 25.9692 174.213   2
 -22 -10  23-90.7348 191.522   2
 -22 -10  21-43.0849 209.914   2
 -22 -10  19-121.623 229.590   2
 -22 -10  17 538.673 246.776   2
 -22  10   4 1000.43 326.117   2
  22 -10  -1 473.799 230.550   2
  22 -10   1 76.3591 231.378   2
  22 -10   3 695.209 228.351   2
  22 -10   5 199.184 209.285   2
  22 -10   7 1185.79 137.128   2
  22 -10   9 1530.22 131.366   2
  22 -10  10 767.223 121.838   2
  22 -10  12 2065.51 116.975   2
  22 -10  14 396.899 141.996   2
  22 -12  -4 353.142 206.211   2
  22 -12  -3 107.295 214.335   2
  22 -12  -1 1808.74 218.205   2
  22 -12   1 1105.87 166.207   2
  22 -12   3 627.028 155.341   2
  22 -12   5 210.907 178.352   2
  22 -12   7 98.4694 152.225   2
  22 -14 -15-4.81054 94.7342   2
  22 -14 -14 77.6889 107.121   2
  22 -14 -12-4.25712 121.501   2
  22 -14 -10 26.5106 125.901   2
  22 -14  -8 193.655 131.991   2
  22 -14  -6-7.69635 145.006   2
  22 -14  -4 38.6001 147.695   2
  22 -14  -3 22.1311 147.580   2
  22 -14  -1 551.422 147.620   2
  22 -14   1 45.4514 134.973   2
 -23  -1  33 97.6971 105.223   2
 -23  -1  31-61.6720 179.662   2
 -23  -1  30-14.2316 199.306   2
 -23  -1  29 95.7155 215.830   2
 -23   1  28 198.430 156.365   2
 -23   1  27 118.055 170.763   2
 -23   1  26 481.319 184.597   2
 -23  -1  24 156.411 192.697   2
 -23  -1  22 690.075 200.671   2
 -23  -1  20-22.2585 193.098   2
  23   1 -18 1501.56 142.269   2
  23   1 -17 64.2143 130.048   2
  23   1 -16 2281.04 163.502   2
  23   1 -15 117.313 130.136   2
  23   1 -13 1640.60 134.515   2
  23   1 -11 1373.73 152.883   2
  23  -1  -9 225.137 187.614   2
  23   1  -7 5166.65 169.697   2
  23  -1  -5 1895.26 98.4516   2
  23  -1  -4 8.59253 128.763   2
  23  -1  -3 590.322 150.643   2
  23  -1  -2 2074.86 80.2104   2
  23   1   0 199.714 67.4143   2
  23   1   2 2060.33 81.6965   2
  23   1   4 174.676 69.2122   2
  23   1   6 441.955 75.9557   2
  23  -1   8 638.796 77.9646   2
  23   1  10 4738.79 145.428   2
  23   1  11 326.016 79.1627   2
  23   1  13 3734.65 90.6986   2
  23   1  15 806.535 82.5657   2
  23   1  17 777.920 84.9299   2
  23   1  19 69.0800 77.7611   2
  23   1  21 306.135 99.9567   2
  23   1  22 389.188 70.4085   2
  23  -1  24 418.021 86.5280   2
  23   1  26 1297.85 101.269   2
 -23  -3  32-7.65687 88.4436   2
 -23  -3  31 87.0377 193.510   2
 -23  -3  30 240.983 217.962   2
 -23  -3  29 60.8712 240.436   2
 -23  -3  28 47.8824 247.112   2
 -23  -3  26 1627.31 296.493   2
 -23  -3  24-61.1824 279.495   2
 -23  -3  22 194.582 180.499   2
 -23  -3  20 1405.02 193.211   2
  23  -3 -18 207.457 129.637   2
  23  -3 -17 1526.21 137.020   2
  23  -3 -16 2039.72 158.116   2
  23  -3 -15 379.670 129.121   2
  23   3 -13 562.501 129.690   2
  23  -3 -11-4.31625 145.549   2
  23  -3  -9 958.316 109.086   2
  23   3  -7 735.022 97.2759   2
 -23   3   5 3648.54 110.821   2
  23  -3  -4 1569.56 174.188   2
  23  -3  -2 67.8779 93.1802   2
  23   3   0 1609.90 91.5748   2
  23  -3   2 2621.41 107.603   2
  23   3   4 577.353 86.2331   2
  23  -3   6 3104.79 101.422   2
  23  -3   8 1630.96 123.476   2
  23  -3   9 4166.79 153.849   2
  23   3  10 3505.20 233.019   2
  23  -3  11 4288.61 124.666   2
  23  -3  13 253.210 92.3008   2
  23  -3  15 129.154 94.2841   2
  23  -3  17 2160.84 102.058   2
  23  -3  19 1014.27 97.2535   2
  23  -3  22 453.489 88.3611   2
  23  -3  24 241.511 95.3636   2
 -23  -5  32 45.7136 156.976   2
 -23  -5  31 35.6675 180.188   2
 -23  -5  30 15.2779 210.300   2
 -23  -5  29 560.108 231.445   2
 -23  -5  28 173.681 252.554   2
 -23  -5  26 173.168 282.353   2
 -23  -5  24 169.965 288.234   2
 -23  -5  22 198.211 291.522   2
 -23  -5  20 501.856 297.555   2
 -23  -5  18 615.270 281.422   2
 -23  -5  17 94.5597 290.195   2
 -23   5  15-42.5810 189.508   2
 -23   5  13 503.453 127.530   2
 -23   5  11 237.687 149.408   2
 -23   5   9 230.018 131.713   2
 -23   5   7 2737.17 139.140   2
  23  -5  -5 1038.90 126.637   2
  23  -5  -4 2621.12 195.273   2
  23  -5  -2 244.592 110.522   2
  23  -5   0 1776.68 117.470   2
  23  -5   2 628.813 119.918   2
  23  -5   4-20.5180 111.271   2
  23  -5   6 672.127 115.489   2
  23  -5   8 530.997 117.997   2
  23  -5   9 5253.12 164.795   2
  23  -5  11 281.089 123.901   2
  23  -5  13 1748.58 119.341   2
  23  -5  15 3586.18 127.007   2
  23  -5  17 45.8802 133.036   2
  23  -5  19 126.560 99.3898   2
  23  -5  21 638.306 145.056   2
  23  -5  22 346.297 100.373   2
  23  -5  24 699.789 115.160   2
 -23  -7  30 120.200 162.173   2
 -23  -7  29 35.7621 189.772   2
 -23  -7  28 130.334 200.957   2
 -23  -7  27-7.90579 223.308   2
 -23  -7  26 1403.27 246.057   2
 -23  -7  24 6.88193 276.235   2
 -23  -7  22 123.269 282.681   2
 -23  -7  20-0.08096 296.143   2
 -23  -7  18 1227.87 293.846   2
 -23  -7  15 121.753 268.645   2
 -23  -7  13 1011.25 290.926   2
 -23  -7  11 384.705 276.376   2
 -23   7   9 781.234 206.898   2
 -23   7   7 2959.74 182.426   2
  23  -7  -5 38.1151 203.979   2
  23  -7  -2 1931.30 128.141   2
  23  -7   0 65.0305 127.013   2
  23  -7   2 889.244 132.221   2
  23  -7   4 76.8860 149.613   2
  23  -7   6 544.951 155.420   2
  23  -7   8 2883.59 164.155   2
  23  -7   9 605.965 153.346   2
  23  -7  11 258.547 144.579   2
  23  -7  13 1666.96 145.718   2
  23  -7  15-2.19593 128.014   2
  23  -7  17 391.602 120.005   2
  23  -7  19 148.566 152.972   2
  23  -7  22 459.919 116.697   2
 -23  -9  27 168.116 156.717   2
 -23  -9  26-59.2272 180.836   2
 -23  -9  24-103.323 210.418   2
 -23  -9  22-53.9646 227.010   2
 -23  -9  20-35.2169 252.417   2
 -23  -9  18 500.066 259.590   2
 -23  -9  15 56.5841 263.786   2
 -23  -9  13 732.531 277.231   2
 -23   9   5 1150.75 332.316   2
  23  -9  -2 14.1582 213.596   2
  23  -9   0 61.1838 219.877   2
  23  -9   2 2607.19 155.710   2
  23  -9   4 342.083 144.531   2
  23  -9   6 346.884 143.727   2
  23  -9   8 2157.62 150.372   2
  23  -9   9 4013.48 156.129   2
  23  -9  11 3701.73 141.323   2
  23  -9  13 1072.12 121.703   2
  23  -9  15 3894.48 169.286   2
  23  -9  17 332.236 132.728   2
  23 -11  -5 557.476 211.694   2
  23 -11  -4 388.170 213.870   2
  23 -11  -2 426.509 171.524   2
  23 -11   0 54.7273 167.922   2
  23 -11   2 29.2540 206.133   2
  23 -11   4 56.4523 199.220   2
  23 -11   6 231.648 173.931   2
  23 -11   8 182.908 164.079   2
  23 -11   9 103.648 154.268   2
  23 -13 -17 54.8055 103.119   2
  23 -13 -16 232.397 113.080   2
  23 -13 -15 31.1803 119.819   2
  23 -13 -13 32.5103 132.620   2
  23 -13 -11-2.09049 145.706   2
  23 -13  -9 77.0162 156.808   2
  23 -13  -7 68.4943 155.985   2
  23 -13  -5 275.344 169.191   2
  23 -13  -4 465.835 179.258   2
  23 -13  -2 83.5364 174.832   2
  23 -13   0 201.229 172.624   2
  23 -13   2 1031.37 167.205   2
  23 -13   4 9.08182 138.609   2
 -24   0  30 289.154 183.837   2
 -24   0  28 175.174 219.116   2
  24   0 -18 4584.68 229.481   2
  24   0 -16 345.479 192.441   2
  24   0 -14 260.268 187.968   2
  24   0 -12 865.860 186.615   2
  24   0 -10 1595.36 280.213   2
  24   0  -8 1198.23 289.027   2
  24   0  -6 218.544 249.095   2
  24   0  -4 1108.33 189.556   2
  24   0  10 1469.57 116.877   2
  24   0  12 6518.95 138.382   2
  24   0  14 111.087 116.249   2
  24   0  16 2243.97 126.329   2
  24   0  18 4909.21 131.908   2
  24   0  20 7797.98 190.988   2
 -24  -2  32 167.411 86.6483   2
 -24  -2  31 23.6086 179.933   2
 -24  -2  30 167.794 204.421   2
 -24  -2  29-53.8751 225.866   2
 -24  -2  28 208.146 240.504   2
 -24  -2  27 459.596 264.226   2
 -24   2  25 24.7890 170.613   2
 -24  -2  23-8.46869 185.326   2
 -24  -2  21 866.313 191.436   2
 -24  -2  19 1687.25 204.700   2
 -24  -2  18 157.660 192.293   2
  24   2 -17 3104.73 146.549   2
  24   2 -16 263.188 139.431   2
  24   2 -14 364.637 138.114   2
  24   2 -12 69.5687 149.646   2
  24   2 -10 188.085 149.812   2
  24  -2  -8 73.7389 117.460   2
  24  -2  -6 64.4457 107.245   2
  24  -2  -5 2236.11 147.145   2
  24  -2  -4 3263.49 151.508   2
  24  -2  -3 151.638 104.171   2
  24   2  -1 338.991 78.9010   2
  24   2   1 1744.24 87.5703   2
  24   2   3 12136.2 117.056   2
  24   2   5 9835.88 103.126   2
  24   2   7 203.404 85.9753   2
  24  -2  10 919.090 89.7304   2
  24  -2  12 193.606 77.8247   2
  24  -2  14 163.547 79.8176   2
  24   2  16 299.267 79.6154   2
  24   2  18 1865.48 82.9611   2
  24   2  20 22.4749 81.8599   2
  24  -2  21 84.7873 80.9273   2
  24  -2  23 748.711 82.3173   2
  24  -2  25 1919.09 106.137   2
 -24  -4  32-13.2920 152.002   2
 -24  -4  31-27.1010 175.096   2
 -24  -4  30 54.5508 97.7370   2
 -24  -4  29 245.332 229.537   2
 -24  -4  28 21.5737 228.044   2
 -24  -4  27 91.8566 248.498   2
 -24  -4  25 57.0795 266.305   2
 -24  -4  23 175.101 310.606   2
 -24  -4  21 87.7040 286.061   2
 -24  -4  19 142.950 177.552   2
 -24  -4  18 139.654 183.154   2
 -24   4  17 1292.91 244.106   2
 -24  -4  16 578.960 179.650   2
  24  -4 -14 99.7255 110.514   2
 -24   4  12 683.040 133.641   2
 -24   4  10 23.6737 137.741   2
 -24   4   8 1426.30 103.452   2
  24  -4  -6 877.062 100.794   2
  24  -4  -5 276.918 165.369   2
  24  -4  -4 1120.23 175.695   2
  24  -4  -3 255.350 130.541   2
  24  -4  -1 366.351 112.948   2
  24  -4   1 184.232 104.727   2
  24  -4   3 851.881 113.253   2
  24  -4   5 506.331 120.771   2
  24  -4   7 964.483 119.449   2
  24  -4   8 2573.93 136.679   2
  24  -4  10 2014.96 119.946   2
  24  -4  12 1404.95 118.585   2
  24  -4  14 213.476 117.880   2
  24  -4  16 3767.86 104.396   2
  24  -4  18 61.8568 89.5841   2
  24  -4  20 1115.02 159.019   2
  24  -4  21 137.605 91.1665   2
  24  -4  23 115.079 120.767   2
 -24  -6  30 160.799 170.940   2
 -24  -6  29 71.8260 196.859   2
 -24  -6  28 50.6333 210.765   2
 -24  -6  27 115.369 224.539   2
 -24  -6  25 135.918 262.671   2
 -24  -6  23 8.62465 280.617   2
 -24  -6  21 841.507 304.088   2
 -24  -6  19-54.8914 313.409   2
 -24  -6  18 533.532 302.441   2
 -24  -6  16 798.423 282.459   2
 -24  -6  14 444.016 284.227   2
 -24  -6  12 20.2526 273.083   2
 -24   6  10 388.127 185.984   2
 -24   6   8 1174.79 166.977   2
 -24   6   6 72.6895 157.228   2
  24  -6  -5 360.800 178.659   2
  24  -6  -3 877.503 122.335   2
  24  -6  -1 239.655 123.153   2
  24  -6   1 367.688 129.265   2
  24  -6   3 4092.75 164.976   2
  24  -6   5 2727.54 149.897   2
  24  -6   7 331.967 134.818   2
  24  -6   8 147.126 145.793   2
  24  -6  10 3960.91 149.157   2
  24  -6  12 1052.28 137.305   2
  24  -6  14 863.461 138.756   2
  24  -6  16 7284.74 163.055   2
  24  -6  18 1701.46 132.407   2
  24  -6  21 420.351 133.575   2
  24  -6  23 993.936 105.053   2
 -24  -8  28 42.4035 157.138   2
 -24  -8  27 131.537 187.387   2
 -24  -8  25-63.6883 223.217   2
 -24  -8  23 535.451 253.419   2
 -24  -8  21-76.3179 261.428   2
 -24  -8  19 151.706 282.006   2
 -24  -8  18 359.762 284.446   2
 -24  -8  16 79.4476 279.594   2
 -24  -8  14 2000.36 296.753   2
 -24  -8  12 325.788 271.552   2
 -24  -8  10 171.496 273.040   2
 -24   8   6 596.420 314.192   2
  24  -8  -5 485.282 205.063   2
  24  -8  -3 160.003 210.375   2
  24  -8  -1 249.829 141.265   2
  24  -8   1 149.032 144.279   2
  24  -8   3 715.185 151.391   2
  24  -8   5 492.072 150.376   2
  24  -8   7 455.311 146.934   2
  24  -8   8 6409.10 173.547   2
  24  -8  10 10230.1 185.267   2
  24  -8  12 531.845 135.326   2
  24  -8  14-18.4546 121.862   2
  24  -8  16 1378.36 161.155   2
  24  -8  18 2964.01 151.723   2
 -24 -10  21 124.154 182.104   2
 -24 -10  19 73.1377 201.202   2
  24 -10  -6 2596.88 236.271   2
  24 -10  -5 170.726 224.311   2
  24 -10  -3 151.939 172.537   2
  24 -10  -1 939.411 180.847   2
  24 -10   1 45.0787 217.014   2
  24 -10   3 2164.72 236.873   2
  24 -10   5 565.673 211.754   2
  24 -10   7 422.460 122.661   2
  24 -10   8 451.287 117.601   2
  24 -10  10 987.773 111.852   2
  24 -10  12 108.832 130.859   2
  24 -12 -19 21.1832 95.9854   2
  24 -12 -18 29.6245 111.062   2
  24 -12 -17 157.929 123.722   2
  24 -12 -16-10.9790 127.177   2
  24 -12 -12 457.184 160.334   2
  24 -12 -10 103.321 170.075   2
  24 -12  -8 97.7565 181.396   2
  24 -12  -6 156.455 184.571   2
  24 -12  -5 78.6844 186.879   2
  24 -12  -3 165.657 188.779   2
  24 -12  -1 21.0883 188.436   2
  24 -12   1 219.872 190.787   2
  24 -12   3 268.185 138.169   2
  24 -12   5 41.2495 128.744   2
  24 -12   7 584.941 114.934   2
 -24  12  -8 82.1428 203.012   2
  24 -14 -10 27.7720 104.116   2
  24 -14  -8 67.0495 113.242   2
  24 -14  -6-37.1220 118.119   2
  24 -14  -5 69.7880 120.731   2
  24 -14  -4-64.4607 124.725   2
  24 -14  -3 291.197 123.736   2
 -25  -1  31-46.9141 156.787   2
 -25  -1  30 250.682 183.880   2
 -25  -1  29-60.3417 205.598   2
 -25   1  28 110.411 147.114   2
 -25   1  26 12.4050 169.666   2
 -25  -1  24 201.858 186.240   2
 -25   1  22 1992.94 210.881   2
 -25  -1  20 464.195 199.114   2
 -25  -1  19 1544.72 205.215   2
 -25  -1  18 149.268 195.382   2
 -25  -1  17 1366.11 204.212   2
  25   1 -15 95.9951 135.892   2
  25  -1 -13 718.138 136.592   2
  25  -1 -11 371.777 157.626   2
  25  -1  -9 573.924 193.833   2
  25  -1  -7 223.765 187.953   2
  25  -1  -6 1966.41 150.300   2
  25  -1  -5 201.745 140.357   2
  25  -1  -4 2127.77 101.436   2
  25   1  -2 36.1138 73.2168   2
  25   1   0 1797.14 91.3142   2
  25   1   2 1032.42 88.3805   2
  25   1   4 1496.25 91.4970   2
  25   1   6 1346.93 86.2440   2
  25   1   7 2966.47 191.705   2
  25   1   8 1891.31 183.317   2
  25   1   9 128.941 86.5241   2
  25  -1  11 2276.73 85.7198   2
  25   1  13 7019.96 99.4212   2
  25   1  15 1481.54 84.3156   2
  25   1  17 2001.45 82.0423   2
  25   1  19 410.609 87.3299   2
  25   1  20 212.151 69.2763   2
  25  -1  22 147.848 78.3742   2
  25  -1  24 707.216 78.9038   2
 -25  -3  31 131.475 85.0317   2
 -25  -3  30 14.1374 191.413   2
 -25  -3  29 98.0436 205.099   2
 -25  -3  28 146.497 228.227   2
 -25  -3  26 28.1483 263.072   2
 -25  -3  24 76.3642 276.868   2
 -25  -3  22 3210.64 194.863   2
 -25  -3  20-15.3332 183.718   2
 -25  -3  19 1024.16 189.228   2
 -25  -3  18 892.986 192.502   2
 -25  -3  17-81.6428 186.380   2
  25   3 -15 1651.55 138.074   2
  25   3 -13 2785.32 143.885   2
  25  -3 -11 38.2566 129.823   2
  25  -3  -9 411.213 100.230   2
 -25   3   7 1888.44 118.880   2
  25  -3  -6 1889.22 151.735   2
  25  -3  -5 6.37473 142.577   2
  25  -3  -4 295.994 130.514   2
  25  -3  -2 933.889 131.015   2
  25   3   0 1317.03 108.218   2
  25   3   2 1198.15 114.002   2
  25  -3   4 60.5968 113.222   2
  25  -3   6 200.388 116.569   2
  25   3   8 1329.58 209.131   2
  25  -3   9 107.606 109.701   2
  25  -3  11 982.653 113.404   2
  25  -3  13 410.780 114.984   2
  25  -3  15 3526.61 102.258   2
  25  -3  17 100.303 91.1663   2
  25  -3  19 239.621 110.032   2
  25  -3  20 181.586 85.2882   2
  25  -3  22 168.274 84.5741   2
  25  -3  24 1213.83 103.476   2
 -25  -5  31 51.0078 152.173   2
 -25  -5  30-5.29517 176.433   2
 -25  -5  29 112.364 201.919   2
 -25  -5  28 13.4110 206.584   2
 -25  -5  26 7.92341 252.040   2
 -25  -5  24 260.348 280.318   2
 -25  -5  22 28.6261 285.227   2
 -25  -5  20 484.075 291.843   2
 -25  -5  19 2124.46 333.394   2
 -25  -5  18 371.656 294.324   2
 -25  -5  17-14.1270 296.095   2
 -25  -5  15-19.6392 176.960   2
 -25  -5  13 489.128 181.029   2
 -25   5  11 1935.51 168.501   2
  25   5  -9 1696.72 119.942   2
  25  -5  -7 703.844 118.396   2
  25  -5  -6 2858.07 189.447   2
  25  -5  -5 859.922 184.018   2
  25  -5  -4 834.624 116.063   2
  25  -5  -2 2505.28 119.591   2
  25  -5   0 93.2706 128.295   2
  25  -5   2 261.896 140.550   2
  25  -5   4 2864.09 142.030   2
  25  -5   6 1780.45 132.504   2
  25  -5   7 1011.35 142.425   2
  25  -5   9 249.045 130.069   2
  25  -5  11 2712.38 139.229   2
  25  -5  13 5185.18 152.546   2
  25  -5  15 413.855 126.924   2
  25  -5  17 2067.77 141.003   2
  25  -5  20 227.045 138.623   2
  25  -5  22 139.075 116.129   2
 -25  -7  29 129.093 150.490   2
 -25  -7  28 194.847 175.580   2
 -25  -7  26 46.1335 216.988   2
 -25  -7  24 349.235 243.456   2
 -25  -7  22 155.136 265.778   2
 -25  -7  20 62.6253 288.449   2
 -25  -7  19 648.923 298.418   2
 -25  -7  18 424.856 301.876   2
 -25  -7  17 92.6359 285.153   2
 -25  -7  15 1186.74 299.054   2
 -25  -7  13 453.240 292.631   2
 -25  -7  11 83.6332 273.142   2
 -25  -7   9 241.906 258.721   2
  25  -7  -7 254.357 137.549   2
  25  -7  -6 1393.17 198.233   2
  25  -7  -5 52.1482 194.801   2
  25  -7  -4 349.725 206.616   2
  25  -7  -2 84.1434 146.521   2
  25  -7   0 278.353 152.153   2
  25  -7   2 650.784 150.255   2
  25  -7   4 77.5383 147.542   2
  25  -7   6 436.152 155.268   2
  25  -7   7 1542.71 163.780   2
  25  -7   9 2242.67 166.310   2
  25  -7  11-5.74145 144.120   2
  25  -7  13 179.333 131.054   2
  25  -7  15-39.2596 119.622   2
  25  -7  17 527.987 150.201   2
  25  -7  20 901.484 121.184   2
 -25  -9  24 69.0217 176.715   2
 -25  -9  22 29.0129 203.566   2
 -25  -9  20-79.4701 226.456   2
 -25  -9  19 192.243 237.907   2
 -25  -9  18 662.126 240.732   2
 -25  -9  17 42.2775 236.323   2
 -25  -9  15 223.255 248.820   2
  25  -9  -7 126.340 210.233   2
  25  -9  -6 1842.42 226.868   2
  25  -9  -4 21.7835 178.039   2
  25  -9  -2 155.889 179.416   2
  25  -9   0 29.3016 223.159   2
  25  -9   2 405.978 229.283   2
  25  -9   4 934.256 142.164   2
  25  -9   6 2762.99 152.471   2
  25  -9   7 1656.22 144.511   2
  25  -9   9 1417.69 132.053   2
  25  -9  11 1712.85 128.782   2
  25  -9  13 1177.83 114.208   2
  25  -9  15 598.629 132.510   2
  25 -11 -20 42.3279 101.555   2
  25 -11 -19 79.3838 112.486   2
  25 -11 -18 400.303 121.504   2
  25 -11 -17-5.51304 123.824   2
  25 -11 -16 50.6855 136.036   2
  25 -11 -15 33.4412 137.280   2
  25 -11 -13 60.2388 156.111   2
  25 -11 -11 96.3098 179.039   2
  25 -11  -9 15.6188 180.300   2
  25 -11  -7 150.045 204.286   2
  25 -11  -6 545.600 198.273   2
  25 -11  -5 4968.80 239.518   2
  25 -11  -4 4.66221 195.502   2
  25 -11  -2 0.05587 202.248   2
  25 -11   0 383.170 162.998   2
  25 -11   2 472.170 157.263   2
  25 -11   4 112.015 149.397   2
  25 -11   6-32.4070 158.943   2
  25 -11   7 315.251 150.620   2
  25 -11   9 275.547 138.360   2
  25 -13 -13 8.54541 114.082   2
  25 -13 -11 17.2095 124.276   2
  25 -13  -9 112.998 132.382   2
  25 -13  -7 45.1927 143.928   2
  25 -13  -6 35.8035 147.312   2
  25 -13  -5 83.3103 151.888   2
  25 -13  -4 444.527 152.931   2
  25 -13  -2-6.50798 150.658   2
  25 -13   0 74.9346 144.773   2
  25 -13   2 86.5606 133.910   2
 -26   0  20 544.602 296.842   2
 -26   0  18 260.669 291.225   2
 -26   0  16 589.019 277.070   2
  26   0 -14 3677.90 224.791   2
  26   0 -12 3854.57 218.913   2
  26   0 -10 151.977 279.859   2
  26   0  -8 517.644 274.842   2
  26   0  -6 201.532 286.674   2
  26   0   8 450.447 115.639   2
  26   0  10 448.894 112.969   2
  26   0  12 8638.29 142.761   2
  26   0  14 815.631 115.595   2
  26   0  16 1591.63 114.146   2
  26   0  18 1922.74 119.194   2
 -26  -2  31 46.3767 152.336   2
 -26  -2  30 46.5420 174.050   2
 -26  -2  29 230.162 196.756   2
 -26  -2  27 159.023 237.636   2
 -26   2  25 61.6717 164.787   2
 -26  -2  23 360.306 181.828   2
 -26  -2  21 151.225 193.879   2
 -26  -2  20-19.3412 191.975   2
 -26  -2  19-10.0529 190.976   2
 -26  -2  18 192.372 196.755   2
 -26  -2  16 10.0212 192.148   2
  26   2 -14 1453.75 144.370   2
  26  -2 -12 43.8270 132.638   2
  26   2 -10 2758.51 173.960   2
  26  -2  -8 2603.59 138.379   2
  26  -2  -7 604.985 169.465   2
 -26   2   6 1299.34 130.514   2
  26  -2  -5 349.534 127.893   2
  26  -2  -3 51.9340 123.684   2
  26   2  -1 1120.63 91.1737   2
  26   2   1 1096.34 89.5942   2
  26   2   3 94.3925 94.8406   2
  26  -2   5 2167.22 101.932   2
  26   2   7 10184.4 256.895   2
  26  -2   8 2791.93 98.3910   2
  26  -2  10 4913.78 102.457   2
  26  -2  12 250.909 88.6578   2
  26  -2  14 296.088 77.6234   2
  26   2  16 525.963 75.2164   2
  26  -2  18 104.463 108.407   2
  26  -2  19 1500.95 88.3981   2
  26  -2  21 3175.90 96.6570   2
  26  -2  23 3321.28 115.290   2
 -26  -4  31 2.20479 145.786   2
 -26  -4  30 159.931 173.528   2
 -26  -4  29 97.1144 197.402   2
 -26  -4  27 141.955 229.440   2
 -26  -4  25 18.2877 263.082   2
 -26  -4  23 266.304 290.069   2
 -26  -4  21 119.945 301.510   2
 -26  -4  20 537.723 188.942   2
 -26  -4  19 870.390 186.222   2
 -26  -4  18 527.122 190.156   2
 -26  -4  16 724.367 187.296   2
 -26  -4  14-8.45160 179.515   2
  26   4 -12 1815.06 109.726   2
 -26   4  10 4116.14 126.493   2
  26  -4  -8 341.181 111.454   2
  26  -4  -7 122.915 138.577   2
  26  -4  -6 447.043 147.517   2
  26  -4  -5 901.213 130.932   2
  26  -4  -3 112.441 119.093   2
  26  -4  -1 310.305 139.310   2
  26  -4   1 436.986 138.551   2
  26  -4   3 612.211 121.794   2
  26  -4   5 590.542 125.444   2
  26  -4   8 2198.00 139.260   2
  26  -4  10 5837.63 158.397   2
  26  -4  12 440.416 135.602   2
  26  -4  14 1151.48 130.031   2
  26  -4  16 820.276 131.388   2
  26  -4  18 294.158 154.334   2
  26  -4  19 547.031 123.169   2
  26  -4  21 216.147 120.004   2
 -26  -6  29 134.172 155.088   2
 -26  -6  27-76.2108 202.558   2
 -26  -6  25 110.145 242.860   2
 -26  -6  23-18.0521 273.701   2
 -26  -6  21-154.247 294.947   2
 -26  -6  20 16.3107 296.884   2
 -26  -6  19 339.131 285.778   2
 -26  -6  18 135.130 305.474   2
  26  -6 -16 820.039 139.704   2
  26  -6 -14 93.9040 136.718   2
  26  -6 -12 228.102 124.659   2
  26  -6 -10 92.6896 145.255   2
  26  -6  -8-15.2396 144.843   2
  26  -6  -7 770.977 183.154   2
  26  -6  -6 280.656 179.290   2
  26  -6  -5 55.9996 131.045   2
  26  -6  -3 38.7965 157.486   2
  26  -6  -1 44.6845 148.025   2
  26  -6   1 829.356 155.128   2
  26  -6   3 578.843 160.308   2
  26  -6   5 1165.43 139.797   2
  26  -6   6 602.156 143.649   2
  26  -6   8 472.816 141.574   2
  26  -6  10 2980.33 152.180   2
  26  -6  12 1743.14 150.548   2
  26  -6  14 7495.57 168.389   2
  26  -6  16 1259.97 126.839   2
  26  -6  18 692.752 145.968   2
  26  -6  19 246.600 132.344   2
  26  -6  21 1359.42 110.431   2
 -26  -8  25 106.434 182.592   2
 -26  -8  23-6.53844 218.824   2
 -26  -8  21-17.9905 241.968   2
 -26  -8  20 885.387 263.101   2
  26  -8 -19 320.286 119.018   2
  26  -8 -18 181.722 127.968   2
 -26  -8  16-5.15223 269.165   2
 -26  -8  14 803.604 270.691   2
 -26  -8  12 65.9911 254.437   2
  26  -8 -10 1820.24 167.071   2
  26  -8  -8 34.3761 196.479   2
  26  -8  -7 113.269 197.630   2
  26  -8  -6 191.621 202.208   2
  26  -8  -5 522.422 177.676   2
  26  -8  -3 166.857 181.689   2
  26  -8  -1 44.7301 224.741   2
  26  -8   1 956.525 148.459   2
  26  -8   3 679.817 149.335   2
  26  -8   5 292.623 149.739   2
  26  -8   6 5778.16 177.241   2
  26  -8   8 2672.59 153.426   2
  26  -8  10 151.719 134.176   2
  26  -8  12 536.053 124.197   2
  26  -8  14 3807.65 130.642   2
  26  -8  16 759.925 134.761   2
  26 -10 -20 10.9542 113.972   2
  26 -10 -19 144.855 122.402   2
  26 -10 -18 42.9908 119.790   2
  26 -10 -17 49.4259 127.857   2
  26 -10 -16 78.0893 146.072   2
  26 -10 -14 350.384 158.284   2
  26 -10 -12 33.3191 175.766   2
  26 -10 -10 128.477 187.163   2
  26 -10  -8 901.033 206.690   2
  26 -10  -7 106.104 205.650   2
  26 -10  -6 65.9891 197.239   2
  26 -10  -5 81.1278 202.302   2
  26 -10  -3 1219.97 173.985   2
  26 -10  -1 39.6765 170.680   2
  26 -10   1 831.136 175.015   2
  26 -10   3 51.3824 203.057   2
  26 -10   5 373.668 190.542   2
  26 -10   6 1123.91 194.218   2
  26 -10   8 273.903 174.047   2
  26 -10  10 96.5534 151.424   2
  26 -12 -16 39.2365 106.379   2
  26 -12 -14 10.0645 128.034   2
  26 -12 -12-20.7504 142.588   2
  26 -12 -10 62.3490 143.601   2
  26 -12  -8 763.104 161.512   2
  26 -12  -7 18.6261 164.204   2
  26 -12  -6 1727.65 182.562   2
  26 -12  -5 4.88062 171.996   2
  26 -12  -3 130.405 171.001   2
  26 -12  -1-11.4312 165.243   2
  26 -12   1 241.415 156.203   2
  26 -12   3 50.6221 150.940   2
  26 -12   5 30.6563 132.006   2
  26 -12   6-72.2657 121.892   2
 -27  -1  30 80.2344 152.997   2
 -27  -1  28 63.4519 195.946   2
 -27   1  26 193.690 151.999   2
 -27  -1  24 493.074 174.755   2
 -27  -1  22-12.8797 184.660   2
 -27  -1  21 2932.32 206.180   2
 -27  -1  20 116.709 191.534   2
 -27  -1  19 400.614 199.959   2
 -27  -1  17 1598.20 205.390   2
 -27  -1  15 1666.85 218.405   2
  27  -1 -13 267.532 140.995   2
  27  -1 -11 808.692 164.756   2
  27   1  -9 98.3452 200.658   2
  27   1  -7 3991.78 322.209   2
  27  -1  -6 1060.22 136.943   2
  27  -1  -4 717.680 135.519   2
  27   1  -2 584.468 88.5616   2
  27   1   0 427.159 96.0743   2
  27   1   2 53.0773 94.9291   2
  27   1   4 714.112 98.5424   2
  27   1   7 226.390 87.0534   2
  27   1   9 43.9370 88.9272   2
  27   1  11 3284.26 100.813   2
  27   1  13 531.809 77.6368   2
  27   1  15 1364.09 79.7874   2
  27   1  17 1487.36 87.0530   2
  27   1  18 1658.48 71.9065   2
  27  -1  20 749.953 82.7241   2
 -27  -3  30 40.1831 159.381   2
 -27  -3  28 0.05148 197.482   2
 -27  -3  26 39.7804 239.494   2
 -27  -3  24 382.758 271.953   2
 -27  -3  22 56.2478 173.681   2
 -27  -3  21-1.78791 178.281   2
 -27  -3  20 2032.70 199.923   2
 -27  -3  19 126.088 189.753   2
 -27  -3  17 995.187 202.696   2
 -27  -3  15 396.700 190.833   2
 -27  -3  13 842.325 190.152   2
  27   3 -11 939.275 199.340   2
  27  -3  -9 39.3567 112.134   2
  27  -3  -8 262.860 165.578   2
  27  -3  -7 240.123 164.544   2
  27  -3  -6 27.2889 147.116   2
  27  -3  -4 662.790 120.586   2
  27  -3  -2 356.853 137.111   2
  27  -3   0 2686.27 125.516   2
  27  -3   2 23.5108 117.572   2
  27  -3   4 151.946 128.424   2
  27   3   5 949.785 272.864   2
  27  -3   7 318.314 125.437   2
  27  -3   9 699.038 137.090   2
  27  -3  11 703.804 139.688   2
  27  -3  13 2791.89 146.190   2
  27  -3  15 88.6368 122.610   2
  27  -3  17 439.293 154.160   2
  27  -3  18 3825.84 128.104   2
  27  -3  20 620.757 108.013   2
  27  -3  22 124.228 97.7078   2
 -27  -5  28 15.4448 188.711   2
 -27  -5  26 159.961 230.779   2
 -27  -5  24 54.3506 250.096   2
 -27  -5  22 249.242 290.498   2
 -27  -5  21 2567.61 292.165   2
 -27  -5  20 347.785 310.326   2
 -27  -5  19 56.8682 284.049   2
 -27  -5  17 391.327 302.823   2
 -27  -5  15 1142.84 184.396   2
  27  -5 -13 73.9067 115.513   2
  27  -5 -11 85.0231 134.074   2
  27  -5  -9 68.5821 139.925   2
  27  -5  -8 19.1697 172.386   2
  27  -5  -7 2051.29 190.104   2
  27  -5  -6 1.34451 134.569   2
  27  -5  -4 24.1845 133.957   2
  27  -5  -2 110.232 121.422   2
  27  -5   0 94.3112 127.829   2
  27  -5   2 142.375 157.910   2
  27  -5   4 318.406 134.166   2
  27   5   5 300.200 262.300   2
  27  -5   7 185.100 137.452   2
  27  -5   9 822.370 137.653   2
  27  -5  11 1713.25 138.138   2
  27  -5  13 427.172 129.896   2
  27  -5  15 2854.50 145.928   2
  27  -5  17 4098.71 167.688   2
  27  -5  18 316.703 113.557   2
  27  -5  20 984.644 122.958   2
 -27  -7  26 59.6302 182.259   2
 -27  -7  24 76.0596 218.830   2
 -27  -7  22 45.5809 237.351   2
 -27  -7  21 155.958 260.192   2
 -27  -7  20 620.059 280.943   2
 -27  -7  19 350.129 278.685   2
  27  -7 -17 312.957 125.154   2
  27  -7 -15 177.363 141.086   2
  27  -7 -13 248.278 148.129   2
  27  -7 -11 1062.11 150.879   2
  27  -7  -9 1364.43 158.035   2
  27  -7  -8 308.380 190.680   2
  27  -7  -7 198.802 190.282   2
  27  -7  -6-18.3143 164.131   2
  27  -7  -4 790.987 175.321   2
  27  -7  -2 277.454 220.914   2
  27  -7   0 895.804 149.264   2
  27  -7   2 290.510 149.964   2
  27  -7   4 61.6065 149.532   2
  27  -7   5 1242.38 156.143   2
  27  -7   7 1816.75 158.105   2
  27  -7   9 246.501 149.612   2
  27  -7  11 714.925 143.249   2
  27  -7  13 739.942 132.280   2
  27  -7  15 578.660 114.799   2
  27  -7  17 1366.47 136.812   2
  27  -7  18 1445.41 122.119   2
 -27  -9  22 43.1072 167.466   2
 -27  -9  21 199.969 183.696   2
 -27  -9  20-2.38425 188.582   2
  27  -9 -19 9.95492 103.267   2
  27  -9 -18 32.5136 124.737   2
  27  -9 -17 257.636 115.453   2
  27  -9 -15 181.028 148.141   2
  27  -9 -13 23.6630 159.300   2
  27  -9 -11-40.7892 183.398   2
  27  -9  -9 16.8210 191.694   2
  27  -9  -8 45.9792 197.965   2
  27  -9  -7 52.3933 189.516   2
  27  -9  -6 107.843 194.109   2
  27  -9  -4 835.359 176.287   2
  27  -9  -2 298.525 175.817   2
  27  -9   0 40.8255 170.565   2
  27  -9   2 614.561 217.928   2
  27  -9   4-5.71511 203.913   2
  27  -9   5 158.198 199.878   2
  27  -9   7 68.9847 122.712   2
  27  -9   9 684.682 121.556   2
  27  -9  11 110.938 106.016   2
  27  -9  13 149.968 121.486   2
  27 -11 -17 9.16487 106.902   2
  27 -11 -15 61.4271 124.712   2
  27 -11 -13-13.0895 146.827   2
  27 -11 -11 46.7043 149.678   2
  27 -11  -9 647.172 156.330   2
  27 -11  -8 94.0743 170.087   2
  27 -11  -7 226.271 179.810   2
  27 -11  -6 35.6294 179.300   2
  27 -11  -4 105.155 181.452   2
  27 -11  -2 830.659 187.945   2
  27 -11   0 152.018 178.973   2
  27 -11   2 85.1715 137.018   2
  27 -11   4 141.321 128.828   2
  27 -11   5 703.292 129.830   2
  27 -11   7 571.575 115.522   2
 -27  11  -9 220.294 193.363   2
  27 -13 -10 68.7039 107.351   2
  27 -13  -9 39.5066 111.031   2
  27 -13  -8-9.22743 113.862   2
  27 -13  -7-58.5829 114.606   2
  27 -13  -6 1.74758 118.363   2
  27 -13  -4 83.5391 124.665   2
  27 -13  -2 67.8359 118.906   2
 -28   0  22 685.656 274.063   2
 -28   0  20 682.238 287.996   2
 -28   0  18 141.474 292.780   2
 -28   0  16 319.002 280.508   2
 -28   0  14 800.477 279.904   2
 -28   0  12 1769.36 296.191   2
  28   0 -10 3207.18 218.927   2
  28   0  -8 6394.24 356.232   2
  28   0   6 638.640 148.344   2
  28   0   8 6986.24 177.487   2
  28   0  10 18935.0 222.676   2
  28   0  12 4839.75 127.026   2
  28   0  14 160.190 106.932   2
  28   0  16 95.1615 103.710   2
 -28  -2  29-30.1265 164.115   2
 -28  -2  27 50.9905 203.912   2
 -28   2  25 800.585 155.175   2
 -28   2  24 72.4718 209.482   2
 -28  -2  23-4.62449 167.913   2
 -28  -2  22-29.9689 170.924   2
 -28  -2  21 1531.80 188.403   2
 -28  -2  20 46.3292 184.397   2
 -28  -2  18 13.3738 191.592   2
 -28  -2  16 173.048 198.547   2
 -28  -2  14 209.477 196.328   2
 -28  -2  12 99.2752 208.955   2
 -28  -2  10 1484.03 281.369   2
  28   2  -9 550.396 297.930   2
  28  -2  -8 1645.74 160.845   2
  28  -2  -7-59.2193 158.652   2
  28  -2  -5 281.279 150.496   2
  28  -2  -3 87.9728 123.008   2
  28   2  -1 151.744 104.663   2
  28   2   1 228.606 99.3408   2
  28   2   3 695.988 103.227   2
  28   2   4 3247.14 272.582   2
  28  -2   6 1651.85 107.322   2
  28  -2   8 5459.57 121.166   2
  28  -2  10 78.9258 98.2159   2
  28  -2  12 320.445 97.7945   2
  28   2  14-10.5565 89.2736   2
  28  -2  16 357.889 147.110   2
  28  -2  17 1491.58 120.243   2
  28  -2  19 786.470 108.888   2
  28  -2  21 560.880 100.716   2
 -28  -4  29 36.1003 159.229   2
 -28  -4  27 135.845 205.119   2
 -28  -4  25 35.0372 236.694   2
 -28  -4  23 105.391 273.802   2
 -28  -4  22 88.7893 283.005   2
 -28  -4  21 54.0013 277.561   2
 -28  -4  20 259.353 178.259   2
 -28  -4  18 164.003 182.285   2
 -28  -4  16 225.695 181.656   2
 -28  -4  14 783.708 198.456   2
  28  -4 -12 223.404 119.735   2
  28  -4 -10 134.123 129.863   2
  28  -4  -9 29.8801 163.113   2
  28  -4  -8 738.845 165.275   2
  28  -4  -7 359.090 143.097   2
  28  -4  -5 115.704 132.047   2
  28  -4  -3 203.705 131.959   2
  28  -4  -1 41.5544 158.652   2
  28  -4   1 117.684 154.717   2
  28  -4   3 75.1144 129.123   2
  28   4   4 3069.88 283.933   2
  28  -4   6 3418.29 145.952   2
  28  -4   8 8356.01 165.420   2
  28  -4  10 675.939 136.173   2
  28  -4  12 189.422 127.975   2
  28  -4  14 1337.69 126.679   2
  28  -4  16 44.8541 147.245   2
  28  -4  17 43.9769 116.826   2
  28  -4  19 2474.65 112.015   2
 -28  -6  27 88.2975 171.832   2
 -28  -6  25 167.938 209.653   2
 -28  -6  23-63.1262 245.062   2
 -28  -6  22 22.5105 238.820   2
 -28  -6  21 427.984 272.334   2
 -28  -6  20 204.568 284.571   2
 -28  -6  18 539.574 287.437   2
 -28  -6  16 35.6405 286.046   2
  28  -6 -14 480.409 129.567   2
  28  -6 -12 613.349 120.450   2
  28  -6 -10 220.783 146.490   2
  28  -6  -9 781.343 175.141   2
  28  -6  -8 18.8609 170.324   2
  28  -6  -7 110.836 146.019   2
  28  -6  -5 359.640 135.511   2
  28  -6  -3 103.199 140.236   2
  28  -6  -1 293.336 149.431   2
  28  -6   1 108.210 151.762   2
  28  -6   3 1218.43 163.489   2
  28   6   5 1660.36 263.046   2
  28  -6   6 194.683 135.193   2
  28  -6   8 877.968 161.537   2
  28  -6  10 2910.58 164.089   2
  28  -6  12 3891.01 151.420   2
  28  -6  14 1242.05 130.741   2
  28  -6  16 1338.85 145.441   2
  28  -6  17 309.428 102.467   2
  28  -6  19 23.1886 101.677   2
 -28  -8  23 60.8296 182.734   2
 -28  -8  22 143.247 195.371   2
 -28  -8  21 2.97720 207.645   2
 -28  -8  20-36.4860 208.009   2
 -28  -8  18 10.1325 220.158   2
  28  -8 -16 47.0128 126.085   2
  28  -8 -14 135.662 132.191   2
  28  -8 -12 103.724 137.927   2
  28  -8 -10 290.067 188.621   2
  28  -8  -9 104.719 186.317   2
  28  -8  -8 211.576 186.204   2
  28  -8  -7 596.141 199.454   2
  28  -8  -5 58.3202 197.512   2
  28  -8  -3 72.7476 168.023   2
  28  -8  -1 1087.04 183.999   2
  28  -8   1 315.542 222.238   2
  28  -8   3-22.2177 223.827   2
  28  -8   6 345.460 134.880   2
  28  -8   8 1984.03 141.871   2
  28  -8  10 969.174 127.993   2
  28  -8  12 2064.92 118.658   2
  28  -8  14-9.72242 94.5325   2
  28 -10 -18 42.1540 119.216   2
  28 -10 -16 36.8743 120.096   2
  28 -10 -14 102.162 141.302   2
  28 -10 -12 82.8954 158.891   2
  28 -10 -10 1.49222 166.759   2
  28 -10  -9 132.800 173.905   2
  28 -10  -8 14.8025 179.149   2
  28 -10  -7 250.904 187.233   2
  28 -10  -5 395.729 197.777   2
  28 -10  -3 186.033 193.308   2
  28 -10  -1 45.7429 187.233   2
  28 -10   1 194.463 155.158   2
  28 -10   3 996.297 153.320   2
  28 -10   4 1683.42 154.647   2
  28 -10   6 486.938 138.338   2
  28 -10   8-29.1357 124.926   2
  28 -10  10 213.338 110.324   2
 -28  10 -12 35.6633 182.522   2
  28 -12 -12 0.31276 108.302   2
  28 -12 -11 30.7166 116.490   2
  28 -12 -10 299.807 125.791   2
  28 -12  -9 60.9810 130.632   2
  28 -12  -8 7.22827 133.367   2
  28 -12  -7 94.1492 136.277   2
  28 -12  -5 505.930 146.969   2
  28 -12  -3 28.9334 144.140   2
  28 -12  -1-20.4156 138.178   2
  28 -12   1 102.243 134.729   2
  28 -12   3 190.375 119.663   2
 -29  -1  28 139.952 167.258   2
 -29   1  26 165.664 138.010   2
 -29   1  25 92.6391 198.391   2
 -29  -1  24 307.864 157.508   2
 -29  -1  23 71.6415 163.634   2
 -29  -1  22 103.291 167.420   2
 -29  -1  21-29.2059 176.398   2
 -29  -1  19 831.400 200.173   2
 -29  -1  17 1394.35 205.664   2
 -29  -1  15 67.4861 195.803   2
 -29  -1  13 25.4147 198.838   2
 -29  -1  11 691.987 213.237   2
 -29  -1  10 1306.45 311.357   2
  29  -1  -6 715.032 175.834   2
  29  -1  -4 129.907 188.866   2
  29   1  -2 197.627 122.215   2
  29   1   0 531.984 109.210   2
  29   1   2 1024.07 99.5129   2
  29   1   3 162.845 158.954   2
  29   1   5 640.025 106.186   2
  29  -1   7 2616.60 112.356   2
  29  -1   9 6.49054 100.167   2
  29   1  11 758.720 98.8956   2
  29   1  13 1340.31 95.9550   2
  29   1  15 3064.25 105.340   2
  29   1  16 2465.75 89.9445   2
  29  -1  18 1109.40 98.8741   2
  29  -1  20 137.335 191.538   2
 -29  -3  28 73.6260 168.135   2
 -29  -3  26 76.0456 206.397   2
 -29  -3  24 41.1090 242.294   2
 -29   3  23 43.4548 155.371   2
 -29  -3  22-8.08286 163.368   2
 -29  -3  21 84.8071 167.584   2
 -29  -3  19 308.481 183.912   2
 -29  -3  17-54.9016 188.094   2
 -29  -3  15 107.498 190.227   2
 -29  -3  13 58.6125 189.956   2
 -29  -3  11-6.50767 200.410   2
 -29  -3  10 386.169 290.643   2
  29  -3  -9 44.3517 148.480   2
  29  -3  -8 80.7017 139.720   2
  29  -3  -6 2567.04 160.252   2
  29  -3  -4 599.713 155.898   2
  29  -3  -2 731.416 136.853   2
  29  -3   0 373.785 153.791   2
  29  -3   2 344.194 126.350   2
  29  -3   3 379.139 162.596   2
  29  -3   5 375.021 126.547   2
  29  -3   7 843.683 128.695   2
  29  -3   9 79.3971 130.950   2
  29  -3  11 66.4156 126.863   2
  29  -3  13 502.346 125.180   2
  29  -3  15 366.828 145.732   2
  29  -3  16 3650.16 123.160   2
  29  -3  18 2522.79 114.474   2
 -29  -5  28 18.5131 151.387   2
 -29  -5  26-52.6070 192.363   2
 -29  -5  24 186.951 232.999   2
 -29  -5  23 135.658 256.716   2
 -29  -5  22 584.529 255.725   2
 -29  -5  21 94.8955 272.408   2
 -29  -5  19 37.8766 281.272   2
 -29  -5  17 944.404 183.172   2
 -29  -5  15 97.6876 176.190   2
  29  -5 -13-22.1910 111.483   2
  29  -5 -12 28.4073 145.651   2
  29  -5 -11 111.418 118.695   2
  29  -5 -10 1449.89 147.437   2
  29  -5  -9 265.174 161.850   2
  29  -5  -8 88.3787 144.242   2
  29  -5  -6 93.7299 146.816   2
  29  -5  -4 622.554 138.692   2
  29  -5  -2 1248.31 150.404   2
  29  -5   0 473.778 130.215   2
  29  -5   2 1259.71 153.801   2
  29   5   4 487.716 239.652   2
  29  -5   5 201.208 134.556   2
  29  -5   7 34.4924 135.922   2
  29  -5   9-84.0893 130.760   2
  29  -5  11 148.243 129.407   2
  29  -5  13 1250.74 143.271   2
  29  -5  15 2612.12 159.772   2
  29  -5  16 5.44848 109.764   2
  29  -5  18 146.517 112.393   2
 -29  -7  25 10.5926 165.650   2
 -29  -7  24 22.5517 184.802   2
 -29  -7  23 88.9979 202.726   2
 -29  -7  22 74.6196 206.136   2
 -29  -7  21 22.2348 225.050   2
 -29  -7  19 120.974 234.479   2
 -29  -7  17 212.315 246.579   2
  29  -7 -15 16.4778 119.526   2
  29  -7 -13 351.739 132.466   2
  29  -7 -11 176.893 140.045   2
  29  -7 -10 25.4642 136.770   2
  29  -7  -9 41.6637 141.578   2
  29  -7  -8-22.4522 143.717   2
  29  -7  -6 383.146 204.641   2
  29  -7  -4 1379.63 179.420   2
  29  -7  -2 1381.53 187.623   2
  29  -7   0 1071.98 191.225   2
  29  -7   2 679.038 149.246   2
  29  -7   5 147.490 145.811   2
  29  -7   7 235.829 143.486   2
  29  -7   9 2834.86 151.492   2
  29  -7  11 2614.14 136.020   2
  29  -7  13 1480.92 118.733   2
  29  -7  15 240.595 117.246   2
  29  -7  16 2304.75 122.045   2
  29  -9 -17 280.546 126.294   2
  29  -9 -15-15.5987 136.895   2
  29  -9 -13 300.102 154.328   2
  29  -9 -12 59.6538 156.695   2
  29  -9 -11 25.1016 161.482   2
  29  -9 -10 177.758 173.708   2
  29  -9  -9 4.95803 174.394   2
  29  -9  -8 237.246 181.991   2
  29  -9  -6 103.607 185.177   2
  29  -9  -4 170.452 193.762   2
  29  -9  -2-71.3341 197.857   2
  29  -9   0 574.626 168.637   2
  29  -9   2 191.437 160.741   2
  29  -9   5 67.4881 153.617   2
  29  -9   7 60.4334 178.617   2
  29  -9   9-32.1911 161.719   2
  29  -9  11 97.6758 139.718   2
 -29   9 -13 483.964 181.355   2
  29 -11 -13 10.8127 106.218   2
  29 -11 -12 61.0993 117.267   2
  29 -11 -11 98.8739 125.769   2
  29 -11 -10 10.7875 134.114   2
  29 -11  -9 13.1099 143.175   2
  29 -11  -8 18.4873 146.501   2
  29 -11  -6 60.9864 152.997   2
  29 -11  -4 233.265 161.549   2
  29 -11  -2 12.4153 157.783   2
  29 -11   0 205.626 154.266   2
  29 -11   2 216.877 148.496   2
  29 -11   3 166.186 133.422   2
  29 -11   5 83.1463 125.276   2
 -30   0  26 62.7491 182.406   2
 -30   0  24 1006.53 227.741   2
 -30   0  22 70.4552 232.427   2
 -30   0  20 1343.42 268.425   2
 -30   0  18 88.6358 267.341   2
 -30   0  16 440.093 283.357   2
 -30   0  14 465.048 290.233   2
 -30   0  12 267.622 287.908   2
  30   0   2 323.275 213.784   2
  30   0   4 8.58833 142.676   2
  30   0   6 1421.80 152.715   2
  30   0   8 3295.22 158.620   2
  30   0  10 264.348 140.718   2
  30   0  12 10232.9 175.750   2
  30   0  14 1923.16 146.584   2
 -30  -2  27-11.8596 171.727   2
 -30  -2  26 107.813 188.704   2
 -30  -2  25 33.4015 213.237   2
 -30   2  24-19.3785 143.580   2
 -30  -2  23 49.6616 154.603   2
 -30  -2  22 135.070 166.978   2
 -30  -2  20 17.2385 180.839   2
 -30  -2  18 69.8062 192.863   2
 -30  -2  16 35.9323 205.806   2
 -30  -2  14 85.2663 195.449   2
 -30  -2  12 371.933 214.252   2
 -30  -2  11 571.313 208.005   2
 -30  -2   9 2345.71 315.063   2
  30  -2  -7 2244.37 154.966   2
  30  -2  -5 393.479 174.115   2
  30  -2  -3 132.887 166.504   2
  30  -2  -1 24.1764 131.505   2
  30  -2   1 522.528 113.468   2
  30  -2   2 805.890 161.857   2
  30   2   3-2.93064 227.665   2
  30  -2   4 24.5812 127.156   2
  30  -2   6 2821.53 111.294   2
  30  -2   8 120.882 97.8269   2
  30  -2  10 825.644 95.0514   2
  30  -2  12 178.305 122.951   2
  30  -2  14 431.123 143.889   2
  30  -2  15 2391.65 118.654   2
  30  -2  17 457.915 96.3766   2
  30  -2  19-39.8387 169.034   2
 -30  -4  28-6.22764 141.824   2
 -30  -4  27 52.0098 155.268   2
 -30  -4  26 87.3655 187.120   2
 -30  -4  25-42.4838 192.262   2
 -30  -4  24 18.9063 213.155   2
 -30  -4  23 1.32930 228.992   2
 -30  -4  22-4.93507 251.935   2
 -30  -4  20 28.7129 160.916   2
 -30  -4  18 154.420 172.504   2
 -30  -4  16 558.791 183.736   2
 -30  -4  14 126.090 188.678   2
 -30  -4  12 21.0095 188.736   2
  30  -4 -11 197.040 116.606   2
  30  -4 -10 726.180 158.466   2
  30  -4  -9 152.739 137.236   2
  30  -4  -7 39.5714 145.724   2
  30  -4  -5 47.9717 145.710   2
  30  -4  -3 292.188 141.517   2
  30  -4  -1 19.1404 141.578   2
  30  -4   1 183.413 152.652   2
  30  -4   2 1192.76 235.508   2
  30   4   3 30.0613 240.232   2
  30  -4   4 975.070 134.273   2
  30  -4   6 617.232 135.334   2
  30  -4   8 711.784 131.729   2
  30  -4  10 430.149 125.360   2
  30  -4  12 2701.92 131.910   2
  30  -4  14 249.121 143.872   2
  30  -4  15 325.524 114.706   2
  30  -4  17 793.147 100.857   2
 -30  -6  26-10.1795 155.310   2
 -30  -6  25 59.9537 174.674   2
 -30  -6  24 77.5356 194.276   2
 -30  -6  23-90.1176 207.935   2
 -30  -6  22 71.0467 206.575   2
 -30  -6  20 70.9046 227.779   2
 -30  -6  18 357.972 260.145   2
 -30  -6  16 212.830 260.499   2
  30  -6 -14 130.310 121.127   2
  30  -6 -13 104.116 140.341   2
  30  -6 -12-28.4487 112.766   2
  30  -6 -11 160.959 116.188   2
  30  -6 -10 172.858 133.002   2
  30  -6  -9 692.250 124.793   2
  30  -6  -7 1451.62 151.819   2
  30  -6  -5 634.723 154.685   2
  30  -6  -3 346.036 172.232   2
  30  -6  -1 340.895 173.731   2
  30  -6   1 109.072 175.041   2
  30  -6   2 643.634 223.137   2
  30  -6   4 307.263 144.444   2
  30  -6   6 1017.91 148.367   2
  30  -6   8 1271.35 152.518   2
  30  -6  10 108.528 134.501   2
  30  -6  12 15.7702 120.499   2
  30  -6  14 1291.50 139.537   2
  30  -6  15 258.623 96.2530   2
 -30  -8  21-96.5449 164.299   2
 -30  -8  20 149.550 185.117   2
 -30  -8  18 64.8105 191.980   2
  30  -8 -16-8.71445 107.139   2
  30  -8 -14 166.241 112.090   2
  30  -8 -13 323.959 149.284   2
  30  -8 -12 217.196 160.330   2
  30  -8 -11 110.685 162.137   2
  30  -8 -10 57.8126 159.932   2
  30  -8  -9 87.8251 170.499   2
  30  -8  -7 72.1962 186.298   2
  30  -8  -5 15.6339 187.373   2
  30  -8  -3 619.473 201.413   2
  30  -8  -1 633.346 169.318   2
  30  -8   1 249.185 171.324   2
  30  -8   2 177.880 207.658   2
  30  -8   4 769.733 168.818   2
  30  -8   6 437.180 195.478   2
  30  -8   8 151.080 186.113   2
  30  -8  10 72.5497 168.774   2
  30  -8  12 556.017 147.803   2
  30 -10 -14 33.1099 119.289   2
  30 -10 -13-5.43110 115.128   2
  30 -10 -12 36.6154 120.780   2
  30 -10 -11-8.55333 128.377   2
  30 -10 -10 36.4430 137.387   2
  30 -10  -9-25.2158 150.787   2
  30 -10  -7-33.4749 154.222   2
  30 -10  -5 198.397 169.020   2
  30 -10  -3 675.849 177.287   2
  30 -10  -1-24.2402 170.948   2
  30 -10   1 143.872 162.314   2
  30 -10   2 589.234 161.078   2
  30 -10   4 41.9016 123.910   2
  30 -10   6 365.946 117.342   2
 -30  10  -8 837.702 188.175   2
  30 -12  -5 16.1182 112.713   2
 -31  -1  27 244.332 156.778   2
 -31  -1  26 29.7679 176.389   2
 -31   1  25 115.893 129.921   2
 -31   1  24 142.788 137.422   2
 -31  -1  23 4.05903 147.359   2
 -31   1  22-68.7062 214.112   2
 -31  -1  21 110.238 171.199   2
 -31  -1  19 607.244 181.306   2
 -31  -1  17 136.249 191.017   2
 -31  -1  15 72.0205 195.527   2
 -31  -1  13 756.028 210.877   2
 -31  -1  12 1011.07 204.768   2
 -31  -1  11 796.939 213.861   2
 -31   1  10 1840.25 217.570   2
 -31  -1   8 716.203 298.227   2
  31  -1  -4 18.2761 188.446   2
  31   1  -2 783.314 141.367   2
  31   1   0 636.862 130.766   2
  31  -1   1 343.880 150.534   2
  31   1   2 57.7962 213.320   2
  31   1   3 763.931 113.748   2
  31  -1   5 741.013 95.4354   2
  31  -1   7 70.6531 89.7624   2
  31   1   9 647.139 95.7659   2
  31   1  11 158.496 89.0412   2
  31  -1  13 873.373 142.046   2
  31  -1  14 1121.07 110.776   2
  31  -1  16 682.551 93.7684   2
  31  -1  18 174.203 181.223   2
 -31  -3  27 12.8064 150.680   2
 -31  -3  26 203.935 176.663   2
 -31  -3  25-138.860 196.966   2
 -31  -3  24 171.200 220.769   2
 -31  -3  23 210.121 236.886   2
 -31  -3  21 234.156 160.267   2
 -31  -3  19 56.1479 174.206   2
 -31  -3  17 133.348 182.177   2
 -31  -3  15-3.05105 179.046   2
 -31  -3  13-52.0340 198.175   2
 -31  -3  12 125.092 192.209   2
 -31  -3  11 246.633 201.438   2
 -31  -3  10 396.292 189.468   2
  31  -3  -9 55.3832 151.334   2
  31  -3  -8 86.7791 138.438   2
  31  -3  -6 311.832 149.184   2
  31  -3  -4-52.1991 147.794   2
  31  -3  -2 721.128 166.361   2
  31  -3   0 1383.97 172.378   2
  31  -3   1 442.239 218.660   2
  31   3   2 91.2011 222.766   2
  31  -3   3 146.905 114.342   2
  31  -3   5 197.204 122.548   2
  31  -3   7 237.323 126.138   2
  31  -3   9 131.645 124.973   2
  31  -3  11 84.3331 115.099   2
  31  -3  13 111.669 127.635   2
  31  -3  14 890.200 108.810   2
  31  -3  16 1462.40 108.469   2
 -31  -5  26 47.0285 156.002   2
 -31  -5  25 163.993 175.337   2
 -31  -5  24 1.47128 192.785   2
 -31  -5  23-87.0127 212.659   2
 -31  -5  21 617.752 242.936   2
 -31  -5  19 106.672 258.847   2
 -31  -5  17 416.722 270.140   2
 -31  -5  15 40.8588 170.883   2
 -31  -5  13 117.060 172.290   2
  31  -5 -12 25.0961 107.101   2
  31  -5 -11 38.7033 120.303   2
  31  -5 -10 82.9094 116.628   2
  31  -5  -8 45.9853 134.747   2
  31  -5  -6 417.732 146.925   2
  31  -5  -4-19.7729 149.140   2
  31  -5  -2 173.857 135.878   2
  31  -5   0 251.248 134.951   2
  31  -5   1 679.516 171.790   2
  31  -5   3 1295.26 152.998   2
  31  -5   5 389.310 122.049   2
  31  -5   7 114.402 125.373   2
  31  -5   9 284.447 137.136   2
  31  -5  11 200.037 135.571   2
  31  -5  13 524.192 137.780   2
  31  -5  14 281.003 105.825   2
  31  -5  16 191.382 102.316   2
 -31  -7  23 65.5652 154.968   2
 -31  -7  22 147.402 171.184   2
 -31  -7  21 16.2666 188.072   2
 -31  -7  19 284.046 216.700   2
 -31  -7  17 59.8271 218.622   2
 -31  -7  15 41.6904 223.941   2
  31  -7 -14 109.454 124.750   2
  31  -7 -13 73.7695 116.989   2
  31  -7 -12-28.4457 123.584   2
  31  -7 -11 103.035 147.586   2
  31  -7 -10 95.4758 130.971   2
  31  -7  -8 102.253 135.914   2
  31  -7  -6 422.996 183.211   2
  31  -7  -4 106.094 186.627   2
  31  -7  -2 155.004 165.325   2
  31  -7   0 558.591 170.502   2
  31  -7   1 193.887 212.320   2
  31  -7   3-59.1909 164.543   2
  31  -7   5 102.294 166.803   2
  31  -7   7 715.305 199.844   2
  31  -7   9 430.948 118.805   2
  31  -7  11 76.0707 166.134   2
 -31   7 -13 276.206 187.931   2
  31  -9 -15 82.2068 116.307   2
  31  -9 -14 20.8144 115.412   2
  31  -9 -13 161.674 124.348   2
  31  -9 -12 85.9668 123.503   2
  31  -9 -11 50.7445 133.282   2
  31  -9 -10 36.6083 141.146   2
  31  -9  -8 52.6744 154.423   2
  31  -9  -6 301.418 171.174   2
  31  -9  -4 232.920 177.584   2
  31  -9  -2 39.7425 175.459   2
  31  -9   0 309.339 180.909   2
  31  -9   1 512.274 180.824   2
  31  -9   2 90.8378 170.654   2
  31  -9   3 247.106 144.133   2
  31  -9   5 416.048 135.309   2
  31  -9   7 109.154 120.145   2
 -31   9  -9 146.954 184.740   2
  31 -11 -10 5.58996 109.464   2
  31 -11  -9 220.052 114.264   2
  31 -11  -8 19.7600 115.773   2
  31 -11  -6 45.1871 126.253   2
  31 -11  -4 13.8211 128.759   2
  31 -11  -2 74.9446 125.460   2
  31 -11   0 603.231 122.042   2
  31 -11   1 7.68697 110.338   2
 -32   0  26 76.6286 148.858   2
 -32   0  24 49.0955 182.910   2
 -32   0  22 406.691 210.314   2
 -32   0  20 516.472 233.973   2
 -32   0  18 112.313 258.724   2
 -32   0  16-53.6071 259.740   2
 -32   0  14 28.1271 277.071   2
 -32   0  12 52.1102 298.185   2
  32   0   0 578.514 193.198   2
  32   0   2 597.473 207.298   2
  32   0   4 152.601 135.583   2
  32   0   6 196.249 129.746   2
  32   0   8 1809.25 140.063   2
  32   0  10 11520.2 172.699   2
  32   0  12 2318.64 123.748   2
 -32  -2  26 88.8757 157.386   2
 -32  -2  25 175.920 183.322   2
 -32  -2  24 55.3693 200.455   2
 -32  -2  23 204.793 137.368   2
 -32  -2  22-21.6112 144.068   2
 -32  -2  20 43.6767 160.605   2
 -32  -2  18 35.7169 180.085   2
 -32  -2  16 12.9055 187.011   2
 -32  -2  14 172.757 197.749   2
 -32  -2  13 214.786 190.783   2
 -32  -2  12 244.085 199.373   2
 -32  -2  11 259.976 196.376   2
 -32  -2   9 864.778 207.699   2
 -32  -2   7 625.013 302.246   2
  32  -2  -5 20.8136 148.300   2
  32  -2  -3 439.969 180.025   2
  32  -2  -1 1.39328 196.893   2
  32  -2   0 77.2347 138.120   2
  32  -2   1 130.619 146.515   2
  32  -2   2 603.965 108.827   2
  32  -2   4 206.287 111.681   2
  32  -2   6 297.230 108.633   2
  32  -2   8 225.263 108.028   2
  32  -2  10 228.148 113.360   2
  32  -2  12 454.127 111.369   2
  32  -2  13 4998.02 122.042   2
  32  -2  15 2519.84 98.4669   2
 -32  -4  26 36.6904 150.587   2
 -32  -4  25 105.071 161.148   2
 -32  -4  24 3.44985 195.100   2
 -32  -4  23-69.0041 211.984   2
 -32  -4  22 297.722 226.263   2
 -32  -4  20-16.2176 244.741   2
 -32  -4  18 117.529 159.952   2
 -32  -4  16 282.069 170.818   2
 -32  -4  14-36.1478 180.559   2
 -32  -4  13-57.7325 177.732   2
 -32   4  12 392.209 245.601   2
 -32  -4  11-15.9551 184.345   2
  32  -4 -10-8.58317 143.155   2
  32  -4  -9 106.525 121.825   2
  32  -4  -7 38.9765 135.294   2
  32  -4  -5 37.3346 144.235   2
  32  -4  -3 229.025 150.388   2
  32  -4  -1 34.0457 133.853   2
  32  -4   0 49.1949 200.242   2
  32  -4   1 108.764 199.945   2
  32  -4   2 64.6308 137.593   2
  32  -4   4 339.435 110.309   2
  32  -4   6 713.436 113.205   2
  32  -4   8 901.857 111.474   2
  32  -4  10 1151.51 105.035   2
  32  -4  12 171.714 103.387   2
  32  -4  13 62.2579 92.7471   2
  32  -4  15 206.677 89.0298   2
 -32  -6  23 40.9318 163.871   2
 -32  -6  22 34.0525 179.162   2
 -32  -6  20 60.6339 210.855   2
 -32  -6  18 43.5050 217.714   2
 -32  -6  16 73.8916 222.030   2
 -32  -6  14 117.144 225.810   2
 -32  -6  13 267.205 243.588   2
  32  -6 -12 163.360 101.369   2
  32  -6 -11 169.464 100.831   2
  32  -6  -9 553.190 116.013   2
  32  -6  -7 205.250 137.368   2
  32  -6  -5 50.6878 144.398   2
  32  -6  -3 736.247 197.719   2
  32  -6  -1 322.575 164.092   2
  32  -6   0 99.9031 165.194   2
  32  -6   1 344.524 202.931   2
  32  -6   2 111.700 167.917   2
  32  -6   4 28.7694 163.217   2
  32  -6   6 142.254 164.786   2
  32  -6   8 56.4801 112.028   2
  32  -6  10 257.107 103.797   2
 -32   6 -12 531.089 134.196   2
  32  -6  13 748.345 163.593   2
  32  -8 -14 267.250 121.971   2
  32  -8 -13 89.7470 119.994   2
  32  -8 -12 1.60960 127.671   2
  32  -8 -11 368.355 132.043   2
  32  -8 -10 143.550 137.155   2
  32  -8  -9 96.8349 149.016   2
  32  -8  -7 278.283 164.885   2
  32  -8  -5 94.1633 167.512   2
  32  -8  -3 76.3163 173.242   2
  32  -8  -1 268.542 179.679   2
  32  -8   0 71.2356 184.493   2
  32  -8   1 649.909 185.293   2
  32  -8   2 137.520 146.058   2
  32  -8   4 16.5027 142.797   2
  32  -8   6 24.7798 136.739   2
 -32   8  -8 1892.26 131.458   2
 -32   8 -10 1398.42 188.818   2
  32 -10 -11 40.6072 111.121   2
  32 -10 -10 171.807 120.963   2
  32 -10  -9 7.57200 121.360   2
  32 -10  -7 35.2315 133.417   2
  32 -10  -5 382.504 137.213   2
  32 -10  -3 78.1032 144.519   2
  32 -10  -1-29.7079 137.308   2
  32 -10   0 465.945 133.892   2
  32 -10   1 2.45237 129.389   2
  32 -10   2 206.675 125.342   2
 -33  -1  25 131.619 154.911   2
 -33   1  24 72.1446 116.367   2
 -33   1  23 242.389 131.492   2
 -33  -1  21 143.512 148.885   2
 -33  -1  19 29.1082 165.266   2
 -33  -1  17 33.7217 179.627   2
 -33  -1  15 286.820 192.614   2
 -33  -1  14 294.947 200.858   2
 -33  -1  13 578.786 192.435   2
 -33  -1  12 412.332 199.479   2
 -33  -1  10 1316.99 215.990   2
 -33  -1   8 55.2236 211.915   2
 -33  -1   6-9.82643 296.073   2
  33  -1  -4 126.582 169.838   2
  33  -1  -2 174.770 179.481   2
  33  -1  -1 314.530 137.005   2
  33  -1   0 260.388 141.361   2
  33  -1   1 1091.37 153.120   2
  33  -1   3 63.1237 150.137   2
  33  -1   5 75.6328 161.198   2
  33  -1   7 182.004 112.867   2
  33  -1   9 770.780 112.665   2
  33  -1  11 49.8423 101.096   2
  33  -1  12 276.753 97.2194   2
  33   1  14 58.5361 146.832   2
 -33  -3  25 70.8821 159.194   2
 -33  -3  24 96.9807 180.747   2
 -33  -3  23 4.32124 194.185   2
 -33  -3  21-43.1353 221.244   2
 -33  -3  19 55.5480 152.093   2
 -33  -3  17 411.113 162.099   2
 -33  -3  15 83.7863 177.558   2
 -33  -3  14-7.83792 186.892   2
 -33  -3  13 83.2728 189.351   2
 -33  -3  12 63.5410 188.157   2
 -33  -3  10 190.361 192.266   2
 -33  -3   8 125.369 281.494   2
  33  -3  -6 18.1143 132.917   2
  33  -3  -4 150.018 139.245   2
  33  -3  -2 1135.63 162.113   2
  33  -3  -1 307.882 197.893   2
  33  -3   0 199.992 200.756   2
  33  -3   1 17.6856 153.428   2
  33  -3   3-20.0041 113.905   2
  33  -3   5 992.366 108.483   2
  33  -3   7 369.830 102.718   2
  33  -3   9 2108.93 106.017   2
  33  -3  11 479.911 104.016   2
  33  -3  12 229.853 109.587   2
  33  -3  14 23.9464 181.524   2
 -33  -5  23 357.105 173.497   2
 -33  -5  21 44.4377 200.869   2
 -33  -5  19 341.606 227.481   2
 -33  -5  17 207.068 241.395   2
 -33  -5  15 118.966 152.160   2
 -33  -5  14 102.726 157.388   2
 -33  -5  13-14.2124 160.830   2
 -33  -5  12-18.5284 161.098   2
  33  -5 -10 1.14420 107.694   2
  33  -5  -8 470.543 115.808   2
  33  -5  -6 167.903 139.054   2
  33  -5  -4 193.213 139.061   2
  33  -5  -2-15.6890 140.797   2
  33  -5  -1 669.967 189.045   2
  33  -5   0-50.6667 196.212   2
  33  -5   1 1630.78 169.451   2
  33  -5   3-0.98420 162.461   2
  33  -5   5 35.8137 160.810   2
  33  -5   7 949.865 161.253   2
  33  -5   9 217.229 155.176   2
 -33   5 -11 117.466 133.520   2
  33  -5  12-13.3426 176.293   2
 -33  -7  19-58.7851 166.738   2
 -33  -7  17-32.8037 181.994   2
 -33  -7  15 129.389 194.999   2
 -33  -7  14 18.3439 196.812   2
 -33  -7  13 115.517 194.906   2
  33  -7 -12 157.512 105.868   2
  33  -7 -11 185.821 127.068   2
  33  -7 -10 216.008 131.959   2
  33  -7  -8 19.5227 149.003   2
  33  -7  -6-96.9566 129.132   2
  33  -7  -4 49.3683 174.415   2
  33  -7  -2 485.468 184.113   2
  33  -7  -1 0.44254 175.845   2
  33  -7   0 108.086 180.571   2
  33  -7   1-4.42832 179.676   2
  33  -7   3 9.17357 149.955   2
  33  -7   5 21.2541 144.586   2
  33  -7   7 450.876 135.253   2
  33  -7   9 458.206 122.273   2
  33  -9 -11 39.2205 113.626   2
  33  -9 -10 61.4652 121.052   2
  33  -9  -8 245.502 131.098   2
  33  -9  -6 237.379 136.465   2
  33  -9  -4 55.8813 145.963   2
  33  -9  -2 0.48269 141.288   2
  33  -9  -1 77.9502 147.945   2
  33  -9   0 2.08489 146.141   2
  33  -9   1 358.991 145.867   2
  33  -9   3 185.509 135.894   2
 -34   0  24-6.07873 148.009   2
 -34   0  22-1.16359 184.742   2
 -34   0  20 99.0721 210.543   2
 -34   0  18 268.544 229.595   2
 -34   0  16-20.6408 238.995   2
 -34   0  14 139.242 252.908   2
  34   0  -2 1484.83 188.932   2
  34   0   0 207.037 188.499   2
  34   0   2 81.6849 204.380   2
  34   0   4 49.5141 212.928   2
  34   0   6 352.581 229.525   2
  34   0   8 1177.29 239.133   2
  34   0  10-88.5062 226.564   2
 -34  -2  24-83.9991 161.970   2
 -34  -2  22 92.0489 123.343   2
 -34  -2  20 5.11607 145.499   2
 -34  -2  18 35.2628 159.569   2
 -34   2  17 267.671 223.682   2
 -34  -2  16 39.2931 169.324   2
 -34  -2  15 55.7182 180.985   2
 -34  -2  14 294.665 181.228   2
 -34  -2  13 1.01242 180.404   2
 -34  -2  11 14.8320 194.220   2
 -34  -2   9-12.4328 196.823   2
 -34  -2   7 1084.83 207.103   2
  34  -2  -5 835.229 140.575   2
  34  -2  -4 245.929 164.146   2
  34  -2  -3 651.756 142.882   2
  34  -2  -2 256.566 143.924   2
  34  -2  -1 138.905 181.886   2
  34  -2   0 131.833 149.561   2
  34  -2   2 12.5558 135.634   2
  34  -2   4 439.240 150.669   2
  34  -2   6 361.976 153.307   2
  34   2   8 213.235 157.041   2
  34   2  10 614.977 155.140   2
  34   2  11 1776.51 157.937   2
  34  -2  13 806.610 184.297   2
 -34  -4  22 77.0089 181.268   2
 -34  -4  20 58.7300 210.169   2
 -34  -4  18 146.351 233.385   2
 -34   4  17 130.673 187.221   2
 -34  -4  16 106.731 150.172   2
 -34  -4  15-3.19266 159.013   2
 -34  -4  14 247.579 165.995   2
 -34  -4  13-18.4121 166.381   2
 -34  -4  11 6.47177 177.598   2
 -34  -4   9-12.7664 174.139   2
  34  -4  -7 30.3414 110.387   2
  34  -4  -5 74.9537 132.970   2
  34  -4  -4 181.296 165.386   2
  34  -4  -3-18.4919 135.362   2
  34  -4  -2 911.919 139.651   2
  34  -4  -1 4.64829 173.963   2
  34  -4   0 317.405 144.385   2
  34  -4   2 181.926 194.633   2
  34  -4   4-18.0398 200.781   2
  34  -4   6 105.359 199.782   2
  34  -4   8 373.968 203.055   2
  34  -4  10 635.694 194.916   2
  34  -4  11 252.134 180.387   2
 -34  -6  20-33.9958 162.091   2
 -34  -6  18 19.8642 180.114   2
 -34  -6  16 207.083 195.728   2
 -34  -6  15-9.00237 200.761   2
 -34  -6  14 141.578 200.286   2
 -34  -6  13-8.95611 202.368   2
  34  -6 -11 18.6220 104.134   2
  34  -6  -9 54.3611 99.7897   2
  34  -6  -7 119.732 105.783   2
  34  -6  -5 1055.02 167.589   2
  34  -6  -3 576.510 166.193   2
  34  -6  -2 110.298 171.406   2
  34  -6  -1 62.8221 175.789   2
  34  -6   0-32.0347 171.525   2
  34  -6   2 34.2063 177.237   2
  34  -6   4-5.45811 184.310   2
  34  -6   6 121.748 182.075   2
  34  -6   8 81.7055 168.470   2
  34  -8 -11 130.342 113.683   2
  34  -8  -9 80.3210 126.400   2
  34  -8  -7 40.9733 132.649   2
  34  -8  -5 29.2264 144.988   2
  34  -8  -4 114.793 149.954   2
  34  -8  -3 94.0792 149.565   2
  34  -8  -2 5.36306 152.342   2
  34  -8  -1 624.428 153.590   2
  34  -8   0 33.9776 154.350   2
  34  -8   2-39.8560 143.702   2
  34  -8   4 139.278 137.619   2
 -35  -1  23 9.58186 153.659   2
 -35  -1  21-19.0065 124.385   2
 -35  -1  19 139.491 147.841   2
 -35  -1  18-33.4433 156.288   2
 -35  -1  17 275.076 166.469   2
 -35  -1  16 240.863 163.997   2
 -35  -1  15 159.978 173.728   2
 -35  -1  14 95.3197 178.507   2
 -35  -1  12 357.886 193.168   2
 -35  -1  10 209.928 191.259   2
 -35   1   8 899.152 197.387   2
 -35  -1   6 742.627 188.388   2
 -35  -1   4 701.158 280.227   2
  35  -1  -3 206.610 131.514   2
  35  -1  -2 422.594 170.726   2
  35  -1  -1 162.101 167.445   2
  35  -1   1 108.015 133.212   2
  35   1   3 77.4155 137.953   2
  35   1   5 397.115 147.174   2
  35   1   7 72.9278 147.426   2
  35   1   9 30.4115 142.705   2
  35   1  10 415.631 138.864   2
  35   1  11 81.7474 128.024   2
  35   1  12 123.615 119.035   2
 -35  -3  21 10.4568 186.330   2
 -35  -3  19 175.544 135.733   2
 -35  -3  18 61.0053 139.343   2
 -35  -3  17 345.419 151.704   2
 -35  -3  16 3.43541 149.448   2
 -35  -3  15 89.9480 153.104   2
 -35  -3  14-67.0878 161.659   2
 -35  -3  12-4.06554 164.335   2
 -35  -3  10-42.7587 182.334   2
 -35  -3   8 62.4498 182.485   2
  35  -3  -6 75.4089 106.240   2
  35  -3  -5 58.8709 146.282   2
  35  -3  -4 171.786 130.641   2
  35  -3  -3 32.7783 133.058   2
  35  -3  -2 410.257 162.267   2
  35  -3  -1 33.3973 135.303   2
  35  -3   1-8.68882 137.368   2
  35  -3   3 303.382 140.527   2
  35  -3   5 481.040 192.670   2
  35   3   7 514.910 138.651   2
  35  -3   9 54.9737 190.434   2
  35  -3  10 137.119 182.723   2
 -35  -5  19 72.7389 182.162   2
 -35  -5  18 61.3038 184.823   2
 -35  -5  17 44.5873 199.333   2
 -35  -5  16 532.983 213.202   2
 -35  -5  15 103.367 211.683   2
 -35  -5  14 21.6947 216.804   2
 -35   5  13 289.771 183.305   2
 -35  -5  12 12.1187 143.235   2
 -35  -5  10 40.9015 150.168   2
  35  -5  -8 33.9540 99.8442   2
  35  -5  -6 59.8259 102.683   2
  35  -5  -5-19.6049 147.512   2
  35  -5  -4 314.440 122.044   2
  35  -5  -3 150.317 154.065   2
  35  -5  -2 180.666 163.876   2
  35  -5  -1 836.261 167.717   2
  35  -5   1 76.8245 173.968   2
  35  -5   3 346.159 181.934   2
  35  -5   5 1089.51 190.495   2
  35  -5   7 1.74589 174.328   2
  35  -5   9 19.0580 151.641   2
  35  -7  -8 0.48101 119.570   2
  35  -7  -6 59.7621 136.581   2
  35  -7  -5 123.445 132.232   2
  35  -7  -4 186.418 148.667   2
  35  -7  -3 60.6146 114.566   2
  35  -7  -2 82.7849 114.712   2
  35  -7  -1 112.923 148.149   2
  35  -7   1-142.317 146.960   2
  35  -7   3 73.8962 149.699   2
  35  -7   5 156.283 132.803   2
 -36   0  20 285.262 181.657   2
 -36   0  18 11.0872 190.988   2
 -36   0  16 265.097 229.948   2
 -36   0   4 402.419 261.231   2
 -36   0   2 104.558 239.535   2
  36   0   0 128.866 164.063   2
  36   0   2 257.764 181.380   2
  36   0   4 102.297 185.339   2
  36   0   6 175.989 186.547   2
  36   0   8 289.003 186.205   2
  36   0  10 1340.25 170.407   2
 -36  -2  20-100.619 177.095   2
 -36  -2  19 98.5634 123.793   2
 -36  -2  18 61.4829 135.242   2
 -36  -2  17-7.70180 143.022   2
 -36  -2  16 108.777 147.964   2
 -36  -2  15 62.2713 152.521   2
 -36  -2  13-14.4579 164.110   2
 -36  -2  11 104.804 165.622   2
 -36  -2   9 143.544 180.119   2
 -36  -2   7 92.4630 175.823   2
 -36  -2   5 46.8214 170.654   2
 -36  -2   4 149.789 174.127   2
  36  -2  -3 243.711 156.821   2
  36  -2  -2 109.691 129.257   2
  36  -2   0 26.5515 137.503   2
 -36  -2  -2 190.619 138.638   2
 -36  -2  -4 1357.19 142.274   2
  36   2   6 94.2947 132.592   2
  36   2   7 147.217 182.555   2
  36  -2   8 110.852 182.623   2
  36  -2   9 65.5091 167.932   2
  36  -2  10 144.794 167.477   2
 -36  -4  20 207.159 165.931   2
 -36  -4  19 129.043 179.698   2
 -36  -4  18-21.9009 177.863   2
 -36  -4  17 63.8847 201.032   2
 -36  -4  16 15.1302 196.223   2
 -36  -4  15-18.7805 128.662   2
 -36   4  14 191.516 182.428   2
 -36  -4  13 94.1565 140.310   2
 -36  -4  11 20.6650 149.234   2
 -36  -4   9 76.8186 158.437   2
 -36  -4   7 290.286 160.001   2
  36  -4  -6 432.186 132.095   2
  36  -4  -5 33.0152 104.256   2
  36  -4  -4 1837.56 110.429   2
  36  -4  -3 0.15629 153.672   2
  36  -4  -2 941.205 128.188   2
  36  -4   0-7.15660 161.543   2
  36  -4   2 521.735 168.526   2
  36  -4   4 696.419 172.685   2
  36  -4   6 821.432 171.620   2
  36  -4   8 473.995 164.243   2
  36  -6  -7-31.3710 98.0371   2
  36  -6  -6 36.7947 122.330   2
  36  -6  -5 129.011 108.501   2
  36  -6  -4 170.348 110.315   2
  36  -6  -3 118.420 106.849   2
  36  -6  -2 163.801 109.995   2
  36  -6   0-66.7405 149.503   2
  36  -6   2 294.391 149.693   2
  36  -6   4 11.2310 143.780   2
 -37  -1  20-67.4159 153.768   2
 -37  -1  19 91.6404 115.406   2
 -37  -1  18 162.900 127.275   2
 -37  -1  17-32.1427 131.135   2
 -37  -1  16 83.3320 145.084   2
 -37  -1  14 32.0725 154.491   2
 -37  -1  12 346.358 166.254   2
 -37  -1  10 205.055 164.522   2
 -37  -1   8 508.325 168.764   2
 -37  -1   6 320.599 168.400   2
 -37  -1   5 800.381 178.183   2
 -37   1   4 45.0120 227.892   2
 -37  -1   3 472.858 162.555   2
 -37  -1   1 344.905 156.143   2
 -37  -1  -1 651.588 134.608   2
 -37  -1  -3 411.909 131.306   2
 -37  -1  -5 179.261 119.554   2
  37  -1   7 121.385 164.143   2
 -37  -3  19-70.0755 163.831   2
 -37  -3  18 51.5440 173.046   2
 -37  -3  17-71.4833 186.687   2
 -37  -3  16 116.027 125.213   2
 -37  -3  15 60.2970 131.601   2
 -37  -3  14 15.9146 137.051   2
 -37  -3  12 7.99056 144.387   2
 -37  -3  10-20.0609 153.014   2
 -37  -3   8 86.4953 157.684   2
 -37  -3   6 104.008 150.713   2
 -37  -3   5 298.981 153.865   2
 -37   3   4-24.3925 212.378   2
  37  -3  -3 63.0950 103.627   2
  37  -3  -2-96.1528 139.197   2
  37  -3  -1 33.7879 117.033   2
 -37  -3  -1-80.3346 120.096   2
  37  -3   3 242.233 165.934   2
  37  -3   5 40.2265 159.612   2
 -37  -5  12 6.43409 172.401   2
 -37  -5  10 33.6902 120.900   2
 -37  -5   8 206.882 131.100   2
 -37   5   6-213.482 185.954   2
  37  -5  -5 57.8461 101.806   2
  37  -5  -4 63.2394 101.678   2
  37  -5  -3 9.52374 107.817   2
  37  -5  -1-11.5131 109.041   2
  37  -5   1 123.334 142.890   2
  37  -5   3 250.011 137.244   2
 -38   0  16 82.4448 175.090   2
 -38   0   8 314.674 218.827   2
 -38   0   6 1244.00 227.406   2
 -38   0   4 267.830 204.223   2
 -38   0   2 295.902 192.038   2
 -38   0   0 119.892 194.626   2
 -38   0  -2 147.366 179.114   2
 -38   0  -4 594.973 164.214   2
 -38  -2  17 60.4410 168.267   2
 -38  -2  16 69.8170 116.149   2
 -38  -2  15 101.322 123.226   2
 -38  -2  13-32.2239 133.679   2
 -38  -2  11 19.7079 137.557   2
 -38  -2   9 67.9230 138.750   2
 -38   2   8-16.2967 200.907   2
 -38  -2   7 19.0289 145.472   2
 -38  -2   6-26.4846 138.448   2
 -38  -2   5 761.796 150.680   2
 -38  -2   4 106.749 146.337   2
 -38  -2   2 13.2278 135.328   2
 -38  -2   0 70.4010 132.446   2
 -38   2  -2 1689.59 194.622   2
 -38   2  -4 58.8539 165.154   2
 -38  -4  13-28.1507 160.704   2
 -38  -4  11 81.5068 113.421   2
 -38  -4   9 144.727 122.334   2
 -38   4   8 181.895 173.920   2
 -38  -4   7 292.189 124.558   2
 -38  -4   6 317.883 126.280   2
 -38   4   5 174.238 181.666   2
 -38   4   4 67.4150 170.487   2
 -38   4   2 345.619 183.074   2
 -38   4   0 905.438 178.434   2
 -38   4  -2 852.944 166.371   2
 -39  -1  14 200.696 118.685   2
 -39  -1  12 53.2289 125.584   2
 -39  -1  10 55.1020 131.176   2
 -39  -1   9 148.621 132.585   2
 -39  -1   8-11.2309 128.457   2
 -39  -1   7 48.2801 134.646   2
 -39  -1   6 144.298 129.276   2
 -39  -1   5 123.109 127.249   2
 -39  -1   3 76.2239 126.811   2
 -39  -1   1 109.696 121.364   2
 -39   1  -1 334.619 167.021   2
 -39  -3  11-39.4603 161.111   2
 -39  -3  10-107.224 112.271   2
 -39  -3   9 68.3808 114.347   2
 -39  -3   8-56.0491 113.993   2
 -39  -3   7 119.896 116.280   2
 -39   3   6 381.575 171.187   2
 -39   3   5-101.964 168.708   2
 -39   3   3-39.7269 166.402   2
 -39   3   1 170.251 151.161   2
 -40   0  10 158.622 157.144   2
 -40   0   8 587.863 164.298   2
 -40   0   6 250.619 162.217   2
 -40   0   4 456.401 156.650   2
   0   0   0 0.00000 0.00000   0
TITL Cyc_SC_alpha_twin_twin1_hklf4 in C2/c
REM C2/c (#15 in standard setting)
CELL 1.54184  32.349278  14.464957  30.360711  90.0000  99.9989  90.0000
ZERR    8.00   0.001056   0.000760   0.001241   0.0000   0.0035   0.0000
LATT  7
SYMM -x, y,-z+1/2
SFAC C N Cl Zn
UNIT 400.00 120.00 48.00 24.00
REM  CrysAlisPro recorded range (K): Min=100.0; max=100.0; aver:100.0
TEMP -173
TREF
HKLF 5

BASF 0.45737
END
;
_shelx_hkl_checksum                26
_olex2_submission_special_instructions  'No special instructions were received'
_oxdiff_exptl_absorpt_empirical_details
;
Empirical correction (ABSPACK) includes:
- Absorption correction using spherical harmonics
- Frame scaling
- B-factor correction
;
_oxdiff_exptl_absorpt_empirical_full_max  2.051
_oxdiff_exptl_absorpt_empirical_full_min  0.403
_oxdiff_twin_integration_method    simultaneous
_oxdiff_twin_items                 2
loop_
  _twin_individual_id
  _twin_individual_mass_fraction_refined
  _oxdiff_twin_reflns_isolated
  _oxdiff_twin_reflns_overlapped
  _twin_individual_twin_lattice_type
  _twin_individual_twin_matrix_11
  _twin_individual_twin_matrix_12
  _twin_individual_twin_matrix_13
  _twin_individual_twin_matrix_21
  _twin_individual_twin_matrix_22
  _twin_individual_twin_matrix_23
  _twin_individual_twin_matrix_31
  _twin_individual_twin_matrix_32
  _twin_individual_twin_matrix_33
 1 0.547(3) 15237 12666 ref 1.0000 0.0000 0.0000 0.0000 1.0000 0.0000 0.0000
 0.0000 1.0000
 2 0.453(3) 15192 12666 nmt 0.0778 -0.0014 1.0797 -0.0000 -0.9997 -0.0001 0.9236
 0.0004 -0.0774

_twin_special_details
;
Component 2 rotated by 179.9479\% 
 around [0.76 -0.00 0.65] (reciprocal) or [0.71 0.00 0.71] (direct)
;
